1

   Abaqus 2022                                  Date 30-3ÔÂ-2025   Time 02:04:46
   For use by Supplied by Team-SolidSQUAD under license from Dassault Systemes or its subsidiary.

                                                                                 
                                                                                 
 STEP    1     INCREMENT     1     STEP TIME    0.00    


                        S T E P       1     S T A T I C   A N A L Y S I S


                                                                                          

     AUTOMATIC TIME CONTROL WITH -
          A SUGGESTED INITIAL TIME INCREMENT OF                1.000E-02
          AND A TOTAL TIME PERIOD OF                           0.200    
          THE MINIMUM TIME INCREMENT ALLOWED IS                1.000E-06
          THE MAXIMUM TIME INCREMENT ALLOWED IS                0.200    

     LINEAR EQUATION SOLVER TYPE         DIRECT SPARSE

 CONVERGENCE TOLERANCE PARAMETERS FOR FORCE    
     CRITERION FOR RESIDUAL FORCE     FOR A NONLINEAR PROBLEM          5.000E-03
     CRITERION FOR DISP.    CORRECTION IN A NONLINEAR PROBLEM          1.000E-02
     INITIAL VALUE OF TIME AVERAGE FORCE                               1.000E-02
     AVERAGE FORCE     IS TIME AVERAGE FORCE    
     ALTERNATE CRIT. FOR RESIDUAL FORCE     FOR A NONLINEAR PROBLEM    2.000E-02
     CRITERION FOR ZERO FORCE     RELATIVE TO TIME AVRG. FORCE         1.000E-05
     CRITERION FOR RESIDUAL FORCE     WHEN THERE IS ZERO FLUX          1.000E-05
     CRITERION FOR DISP.    CORRECTION WHEN THERE IS ZERO FLUX         1.000E-03
     CRITERION FOR RESIDUAL FORCE     FOR A LINEAR INCREMENT           1.000E-08
     FIELD CONVERSION RATIO                                             1.00    
     CRITERION FOR ZERO FORCE     REL. TO TIME AVRG. MAX. FORCE        1.000E-05
     CRITERION FOR ZERO DISP.    RELATIVE TO CHARACTERISTIC LENGTH     1.000E-08

 CONVERGENCE TOLERANCE PARAMETERS FOR MOMENT   
     CRITERION FOR RESIDUAL MOMENT    FOR A NONLINEAR PROBLEM          5.000E-03
     CRITERION FOR ROTATION CORRECTION IN A NONLINEAR PROBLEM          1.000E-02
     INITIAL VALUE OF TIME AVERAGE MOMENT                              1.000E-02
     AVERAGE MOMENT    IS TIME AVERAGE MOMENT   
     ALTERNATE CRIT. FOR RESIDUAL MOMENT    FOR A NONLINEAR PROBLEM    2.000E-02
     CRITERION FOR ZERO MOMENT    RELATIVE TO TIME AVRG. MOMENT        1.000E-05
     CRITERION FOR RESIDUAL MOMENT    WHEN THERE IS ZERO FLUX          1.000E-05
     CRITERION FOR ROTATION CORRECTION WHEN THERE IS ZERO FLUX         1.000E-03
     CRITERION FOR RESIDUAL MOMENT    FOR A LINEAR INCREMENT           1.000E-08
     FIELD CONVERSION RATIO                                             1.00    
     CRITERION FOR ZERO MOMENT    REL. TO TIME AVRG. MAX. MOMENT       1.000E-05

     VOLUMETRIC STRAIN COMPATIBILITY TOLERANCE FOR HYBRID SOLIDS       1.000E-05
     AXIAL STRAIN COMPATIBILITY TOLERANCE FOR HYBRID BEAMS             1.000E-05
     TRANS. SHEAR STRAIN COMPATIBILITY TOLERANCE FOR HYBRID BEAMS      1.000E-05
     SOFT CONTACT CONSTRAINT COMPATIBILITY TOLERANCE FOR P>P0          5.000E-03
     SOFT CONTACT CONSTRAINT COMPATIBILITY TOLERANCE FOR P=0.0         0.100    
     CONTACT FORCE ERROR TOLERANCE FOR CONVERT SDI=YES                 1.00    
     DISPLACEMENT COMPATIBILITY TOLERANCE FOR DCOUP ELEMENTS           1.000E-05
     ROTATION COMPATIBILITY TOLERANCE FOR DCOUP ELEMENTS               1.000E-05

 EQUILIBRIUM WILL BE CHECKED FOR SEVERE DISCONTINUITY ITERATIONS

 TIME INCREMENTATION CONTROL PARAMETERS:
     FIRST EQUILIBRIUM ITERATION FOR CONSECUTIVE DIVERGENCE CHECK              4
     EQUILIBRIUM ITERATION AT WHICH LOG. CONVERGENCE RATE CHECK BEGINS         8
     EQUILIBRIUM ITERATION AFTER WHICH ALTERNATE RESIDUAL IS USED              9
     MAXIMUM EQUILIBRIUM ITERATIONS ALLOWED                                   16
     EQUILIBRIUM ITERATION COUNT FOR CUT-BACK IN NEXT INCREMENT               10
     MAXIMUM EQUILIB. ITERS IN TWO INCREMENTS FOR TIME INCREMENT INCREASE      4
     MAXIMUM ITERATIONS FOR SEVERE DISCONTINUITIES                            50
     MAXIMUM ATTEMPTS ALLOWED IN AN INCREMENT                                  5
     MAXIMUM DISCON. ITERS IN TWO INCREMENTS FOR TIME INCREMENT INCREASE      50
     MAXIMUM CONTACT AUGMENTATIONS FOR *SURFACE BEHAVIOR,AUGMENTED LAGRANGE   50
     CUT-BACK FACTOR AFTER DIVERGENCE                                 0.2500    
     CUT-BACK FACTOR FOR TOO SLOW CONVERGENCE                         0.5000    
     CUT-BACK FACTOR AFTER TOO MANY EQUILIBRIUM ITERATIONS            0.7500    
     CUT-BACK FACTOR AFTER TOO MANY SEVERE DISCONTINUITY ITERATIONS   0.2500    
     CUT-BACK FACTOR AFTER PROBLEMS IN ELEMENT ASSEMBLY               0.2500    
     INCREASE FACTOR AFTER TWO INCREMENTS THAT CONVERGE QUICKLY        1.500    
     MAX. TIME INCREMENT INCREASE FACTOR ALLOWED                       1.500    
     MAX. TIME INCREMENT INCREASE FACTOR ALLOWED (DYNAMICS)            1.250    
     MAX. TIME INCREMENT INCREASE FACTOR ALLOWED (DIFFUSION)           2.000    
     MINIMUM TIME INCREMENT RATIO FOR EXTRAPOLATION TO OCCUR          0.1000    
     MAX. RATIO OF TIME INCREMENT TO STABILITY LIMIT                   1.000    
     FRACTION OF STABILITY LIMIT FOR NEW TIME INCREMENT               0.9500    
     TIME INCREMENT INCREASE FACTOR BEFORE A TIME POINT                1.000    
     GLOBAL STABILIZATION CONTROL IS NOT USED

          PRINT OF INCREMENT NUMBER, TIME, ETC., EVERY    1  INCREMENTS

     THE MAXIMUM NUMBER OF INCREMENTS IN THIS STEP IS                   10000

          UNSYMMETRIC MATRIX STORAGE AND SOLUTION WILL BE USED

     LINEAR EXTRAPOLATION WILL BE USED

     CHARACTERISTIC ELEMENT LENGTH      55.6    

     DETAILS REGARDING ACTUAL SOLUTION WAVEFRONT REQUESTED

     DETAILED OUTPUT OF DIAGNOSTICS TO DATABASE REQUESTED

     PRINT OF INCREMENT NUMBER, TIME, ETC., TO THE MESSAGE FILE EVERY     1  INCREMENTS

     ELEMENT OPERATIONS WILL BE CARRIED OUT IN PARALLEL USING   4 THREADS ON 1 DOMAIN

     PARALLEL CONTACT TRACKING ENABLED


     COLLECTING MODEL CONSTRAINT INFORMATION FOR OVERCONSTRAINT CHECKS

     COLLECTING STEP CONSTRAINT INFORMATION FOR OVERCONSTRAINT CHECKS


  INCREMENT     1 STARTS. ATTEMPT NUMBER  1, TIME INCREMENT  1.000E-02
 
     INITIAL ELEMENT LOAD BALANCE
            DOMAIN    1     THREAD    NUMBER OF ELEMENTS
                              1            1639
                              2            1656
                              3            1680
                              4            1664
 
	UNSYMMETRIC DIRECT SPARSE SOLVER RUNNING ON
 	1 HOST:        1 MPI RANK  x 4 THREADS
 	NUMBER OF EQUATIONS:     24045
 	NUMBER OF RHS:           1
 	NUMBER OF FLOPS:         5.711e+09

     CHECK POINT   START OF SOLVER    

     CHECK POINT  END OF SOLVER       

       ELAPSED USER TIME (SEC)      =   1.4000    
       ELAPSED SYSTEM TIME (SEC)    =   0.0000    
       ELAPSED TOTAL CPU TIME (SEC) =   1.4000    
       ELAPSED WALLCLOCK TIME (SEC) =          0

               CONVERGENCE CHECKS FOR EQUILIBRIUM ITERATION     1


 AVERAGE FORCE                       1.41       TIME AVG. FORCE        1.41    
 LARGEST RESIDUAL FORCE            -1.748E-09   AT NODE        352   DOF  1
   INSTANCE: PADR                                                                            
 LARGEST INCREMENT OF DISP.        -1.257E-02   AT NODE        188   DOF  3
   INSTANCE: BEAM1                                                                           
 LARGEST CORRECTION TO DISP.       -1.257E-02   AT NODE        188   DOF  3
   INSTANCE: BEAM1                                                                           
          THE FORCE     EQUILIBRIUM RESPONSE WAS LINEAR IN THIS INCREMENT

 AVERAGE MOMENT                      0.00       TIME AVG. MOMENT       78.2    
                                                (FROM FORCE     FIELD)
 LARGEST RESIDUAL MOMENT            1.996E-08   AT NODE        352   DOF  5
   INSTANCE: PADR                                                                            
 LARGEST INCREMENT OF ROTATION      8.391E-06   AT NODE         27   DOF  5
   INSTANCE: PADR                                                                            
 LARGEST CORRECTION TO ROTATION     8.391E-06   AT NODE         27   DOF  5
   INSTANCE: PADR                                                                            
          THERE IS ZERO MOMENT    EVERYWHERE

 ITERATION SUMMARY FOR THE INCREMENT:   1 TOTAL ITERATIONS, OF WHICH
   0 ARE SEVERE DISCONTINUITY ITERATIONS AND  1 ARE EQUILIBRIUM ITERATIONS.

 TIME INCREMENT COMPLETED  1.000E-02,  FRACTION OF STEP COMPLETED  5.000E-02
 STEP TIME COMPLETED       1.000E-02,  TOTAL TIME COMPLETED        1.000E-02


  INCREMENT     2 STARTS. ATTEMPT NUMBER  1, TIME INCREMENT  1.000E-02
 
	SYMMETRIC DIRECT SPARSE SOLVER RUNNING ON
 	1 HOST:        1 MPI RANK  x 4 THREADS
 	NUMBER OF EQUATIONS:     24045
 	NUMBER OF RHS:           1
 	NUMBER OF FLOPS:         5.711e+09

     CHECK POINT   START OF SOLVER    

     CHECK POINT  END OF SOLVER       

       ELAPSED USER TIME (SEC)      =  0.20000    
       ELAPSED SYSTEM TIME (SEC)    =   0.0000    
       ELAPSED TOTAL CPU TIME (SEC) =  0.20000    
       ELAPSED WALLCLOCK TIME (SEC) =          0

               CONVERGENCE CHECKS FOR EQUILIBRIUM ITERATION     1


 AVERAGE FORCE                       4.25       TIME AVG. FORCE        2.83    
 LARGEST RESIDUAL FORCE             2.393E-11   AT NODE        352   DOF  1
   INSTANCE: PADR                                                                            
 LARGEST INCREMENT OF DISP.        -1.257E-02   AT NODE         80   DOF  3
   INSTANCE: BEAM1                                                                           
 LARGEST CORRECTION TO DISP.       -3.246E-13   AT NODE         80   DOF  3
   INSTANCE: BEAM1                                                                           
          THE FORCE     EQUILIBRIUM RESPONSE WAS LINEAR IN THIS INCREMENT

 AVERAGE MOMENT                      0.00       TIME AVG. MOMENT       78.2    
                                                (FROM FORCE     FIELD)
 LARGEST RESIDUAL MOMENT            1.811E-09   AT NODE        352   DOF  5
   INSTANCE: PADL                                                                            
 LARGEST INCREMENT OF ROTATION     -8.391E-06   AT NODE         27   DOF  5
   INSTANCE: PADL                                                                            
 LARGEST CORRECTION TO ROTATION    -2.369E-16   AT NODE         27   DOF  5
   INSTANCE: PADL                                                                            
          THERE IS ZERO MOMENT    EVERYWHERE
          TIME INCREMENT MAY NOW INCREASE TO    1.500E-02

 ITERATION SUMMARY FOR THE INCREMENT:   1 TOTAL ITERATIONS, OF WHICH
   0 ARE SEVERE DISCONTINUITY ITERATIONS AND  1 ARE EQUILIBRIUM ITERATIONS.

 TIME INCREMENT COMPLETED  1.000E-02,  FRACTION OF STEP COMPLETED  0.100    
 STEP TIME COMPLETED       2.000E-02,  TOTAL TIME COMPLETED        2.000E-02


  INCREMENT     3 STARTS. ATTEMPT NUMBER  1, TIME INCREMENT  1.500E-02
 
	SYMMETRIC DIRECT SPARSE SOLVER RUNNING ON
 	1 HOST:        1 MPI RANK  x 4 THREADS
 	NUMBER OF EQUATIONS:     24045
 	NUMBER OF RHS:           1
 	NUMBER OF FLOPS:         5.711e+09

     CHECK POINT   START OF SOLVER    

     CHECK POINT  END OF SOLVER       

       ELAPSED USER TIME (SEC)      =   0.0000    
       ELAPSED SYSTEM TIME (SEC)    =   0.0000    
       ELAPSED TOTAL CPU TIME (SEC) =   0.0000    
       ELAPSED WALLCLOCK TIME (SEC) =          0

               CONVERGENCE CHECKS FOR EQUILIBRIUM ITERATION     1


 AVERAGE FORCE                       7.44       TIME AVG. FORCE        4.37    
 LARGEST RESIDUAL FORCE             1.519E-11   AT NODE       3262   DOF  1
   INSTANCE: BEAM1                                                                           
 LARGEST INCREMENT OF DISP.        -1.886E-02   AT NODE         80   DOF  3
   INSTANCE: BEAM1                                                                           
 LARGEST CORRECTION TO DISP.        2.434E-13   AT NODE         80   DOF  3
   INSTANCE: BEAM1                                                                           
          THE FORCE     EQUILIBRIUM RESPONSE WAS LINEAR IN THIS INCREMENT

 AVERAGE MOMENT                      0.00       TIME AVG. MOMENT       157.    
                                                (FROM FORCE     FIELD)
 LARGEST RESIDUAL MOMENT            2.570E-09   AT NODE        352   DOF  5
   INSTANCE: PADR                                                                            
 LARGEST INCREMENT OF ROTATION     -1.259E-05   AT NODE         27   DOF  5
   INSTANCE: PADL                                                                            
 LARGEST CORRECTION TO ROTATION     1.777E-16   AT NODE         27   DOF  5
   INSTANCE: PADL                                                                            
          THERE IS ZERO MOMENT    EVERYWHERE
          TIME INCREMENT MAY NOW INCREASE TO    2.250E-02

 ITERATION SUMMARY FOR THE INCREMENT:   1 TOTAL ITERATIONS, OF WHICH
   0 ARE SEVERE DISCONTINUITY ITERATIONS AND  1 ARE EQUILIBRIUM ITERATIONS.

 TIME INCREMENT COMPLETED  1.500E-02,  FRACTION OF STEP COMPLETED  0.175    
 STEP TIME COMPLETED       3.500E-02,  TOTAL TIME COMPLETED        3.500E-02


  INCREMENT     4 STARTS. ATTEMPT NUMBER  1, TIME INCREMENT  2.250E-02
 
	SYMMETRIC DIRECT SPARSE SOLVER RUNNING ON
 	1 HOST:        1 MPI RANK  x 4 THREADS
 	NUMBER OF EQUATIONS:     24045
 	NUMBER OF RHS:           1
 	NUMBER OF FLOPS:         5.711e+09

     CHECK POINT   START OF SOLVER    

     CHECK POINT  END OF SOLVER       

       ELAPSED USER TIME (SEC)      =  0.10000    
       ELAPSED SYSTEM TIME (SEC)    =   0.0000    
       ELAPSED TOTAL CPU TIME (SEC) =  0.10000    
       ELAPSED WALLCLOCK TIME (SEC) =          0

               CONVERGENCE CHECKS FOR EQUILIBRIUM ITERATION     1


 AVERAGE FORCE                       12.2       TIME AVG. FORCE        6.33    
 LARGEST RESIDUAL FORCE            -7.628E-11   AT NODE        352   DOF  1
   INSTANCE: PADR                                                                            
 LARGEST INCREMENT OF DISP.        -2.828E-02   AT NODE         80   DOF  3
   INSTANCE: BEAM1                                                                           
 LARGEST CORRECTION TO DISP.        6.823E-17   AT NODE       2746   DOF  3
   INSTANCE: BEAM1                                                                           
          THE FORCE     EQUILIBRIUM RESPONSE WAS LINEAR IN THIS INCREMENT

 AVERAGE MOMENT                      0.00       TIME AVG. MOMENT       243.    
                                                (FROM FORCE     FIELD)
 LARGEST RESIDUAL MOMENT           -4.558E-09   AT NODE        352   DOF  5
   INSTANCE: PADL                                                                            
 LARGEST INCREMENT OF ROTATION     -1.888E-05   AT NODE         27   DOF  5
   INSTANCE: PADL                                                                            
 LARGEST CORRECTION TO ROTATION     1.842E-20   AT NODE        352   DOF  5
   INSTANCE: PADL                                                                            
          THERE IS ZERO MOMENT    EVERYWHERE
          TIME INCREMENT MAY NOW INCREASE TO    3.375E-02

 ITERATION SUMMARY FOR THE INCREMENT:   1 TOTAL ITERATIONS, OF WHICH
   0 ARE SEVERE DISCONTINUITY ITERATIONS AND  1 ARE EQUILIBRIUM ITERATIONS.

 TIME INCREMENT COMPLETED  2.250E-02,  FRACTION OF STEP COMPLETED  0.287    
 STEP TIME COMPLETED       5.750E-02,  TOTAL TIME COMPLETED        5.750E-02


  INCREMENT     5 STARTS. ATTEMPT NUMBER  1, TIME INCREMENT  3.375E-02
 
	SYMMETRIC DIRECT SPARSE SOLVER RUNNING ON
 	1 HOST:        1 MPI RANK  x 4 THREADS
 	NUMBER OF EQUATIONS:     24045
 	NUMBER OF RHS:           1
 	NUMBER OF FLOPS:         5.711e+09

     CHECK POINT   START OF SOLVER    

     CHECK POINT  END OF SOLVER       

       ELAPSED USER TIME (SEC)      =  0.10000    
       ELAPSED SYSTEM TIME (SEC)    =   0.0000    
       ELAPSED TOTAL CPU TIME (SEC) =  0.10000    
       ELAPSED WALLCLOCK TIME (SEC) =          0

               CONVERGENCE CHECKS FOR EQUILIBRIUM ITERATION     1


 AVERAGE FORCE                       19.4       TIME AVG. FORCE        8.94    
 LARGEST RESIDUAL FORCE             2.891E-10   AT NODE        352   DOF  1
   INSTANCE: PADR                                                                            
 LARGEST INCREMENT OF DISP.        -4.243E-02   AT NODE         80   DOF  3
   INSTANCE: BEAM1                                                                           
 LARGEST CORRECTION TO DISP.        1.469E-16   AT NODE        314   DOF  3
   INSTANCE: BEAM1                                                                           
          THE FORCE     EQUILIBRIUM RESPONSE WAS LINEAR IN THIS INCREMENT

 AVERAGE MOMENT                      0.00       TIME AVG. MOMENT       352.    
                                                (FROM FORCE     FIELD)
 LARGEST RESIDUAL MOMENT            1.240E-08   AT NODE        352   DOF  5
   INSTANCE: PADL                                                                            
 LARGEST INCREMENT OF ROTATION     -2.832E-05   AT NODE         27   DOF  5
   INSTANCE: PADL                                                                            
 LARGEST CORRECTION TO ROTATION    -8.232E-20   AT NODE        352   DOF  5
   INSTANCE: PADR                                                                            
          THERE IS ZERO MOMENT    EVERYWHERE
          TIME INCREMENT MAY NOW INCREASE TO    5.063E-02

 ITERATION SUMMARY FOR THE INCREMENT:   1 TOTAL ITERATIONS, OF WHICH
   0 ARE SEVERE DISCONTINUITY ITERATIONS AND  1 ARE EQUILIBRIUM ITERATIONS.

 TIME INCREMENT COMPLETED  3.375E-02,  FRACTION OF STEP COMPLETED  0.456    
 STEP TIME COMPLETED       9.125E-02,  TOTAL TIME COMPLETED        9.125E-02


  INCREMENT     6 STARTS. ATTEMPT NUMBER  1, TIME INCREMENT  5.063E-02
 
	SYMMETRIC DIRECT SPARSE SOLVER RUNNING ON
 	1 HOST:        1 MPI RANK  x 4 THREADS
 	NUMBER OF EQUATIONS:     24045
 	NUMBER OF RHS:           1
 	NUMBER OF FLOPS:         5.711e+09

     CHECK POINT   START OF SOLVER    

     CHECK POINT  END OF SOLVER       

       ELAPSED USER TIME (SEC)      =  0.10000    
       ELAPSED SYSTEM TIME (SEC)    =  0.10000    
       ELAPSED TOTAL CPU TIME (SEC) =  0.20000    
       ELAPSED WALLCLOCK TIME (SEC) =          0

               CONVERGENCE CHECKS FOR EQUILIBRIUM ITERATION     1


 AVERAGE FORCE                       30.1       TIME AVG. FORCE        12.5    
 LARGEST RESIDUAL FORCE            -6.661E-11   AT NODE        352   DOF  1
   INSTANCE: PADR                                                                            
 LARGEST INCREMENT OF DISP.        -6.364E-02   AT NODE         80   DOF  3
   INSTANCE: BEAM1                                                                           
 LARGEST CORRECTION TO DISP.       -9.671E-17   AT NODE       1792   DOF  3
   INSTANCE: BEAM1                                                                           
          THE FORCE     EQUILIBRIUM RESPONSE WAS LINEAR IN THIS INCREMENT

 AVERAGE MOMENT                      0.00       TIME AVG. MOMENT       497.    
                                                (FROM FORCE     FIELD)
 LARGEST RESIDUAL MOMENT           -6.443E-09   AT NODE        352   DOF  5
   INSTANCE: PADR                                                                            
 LARGEST INCREMENT OF ROTATION     -4.248E-05   AT NODE         27   DOF  5
   INSTANCE: PADL                                                                            
 LARGEST CORRECTION TO ROTATION     7.274E-21   AT NODE        352   DOF  5
   INSTANCE: PADL                                                                            
          THERE IS ZERO MOMENT    EVERYWHERE
          TIME INCREMENT MAY NOW INCREASE TO    7.594E-02

 ITERATION SUMMARY FOR THE INCREMENT:   1 TOTAL ITERATIONS, OF WHICH
   0 ARE SEVERE DISCONTINUITY ITERATIONS AND  1 ARE EQUILIBRIUM ITERATIONS.

 TIME INCREMENT COMPLETED  5.063E-02,  FRACTION OF STEP COMPLETED  0.709    
 STEP TIME COMPLETED       0.142    ,  TOTAL TIME COMPLETED        0.142    


  INCREMENT     7 STARTS. ATTEMPT NUMBER  1, TIME INCREMENT  5.813E-02
 
	SYMMETRIC DIRECT SPARSE SOLVER RUNNING ON
 	1 HOST:        1 MPI RANK  x 4 THREADS
 	NUMBER OF EQUATIONS:     24045
 	NUMBER OF RHS:           1
 	NUMBER OF FLOPS:         5.711e+09

     CHECK POINT   START OF SOLVER    

     CHECK POINT  END OF SOLVER       

       ELAPSED USER TIME (SEC)      =   0.0000    
       ELAPSED SYSTEM TIME (SEC)    =   0.0000    
       ELAPSED TOTAL CPU TIME (SEC) =   0.0000    
       ELAPSED WALLCLOCK TIME (SEC) =          0

               CONVERGENCE CHECKS FOR EQUILIBRIUM ITERATION     1


 AVERAGE FORCE                       42.5       TIME AVG. FORCE        16.8    
 LARGEST RESIDUAL FORCE             3.737E-10   AT NODE        352   DOF  1
   INSTANCE: PADR                                                                            
 LARGEST INCREMENT OF DISP.        -7.307E-02   AT NODE        188   DOF  3
   INSTANCE: BEAM1                                                                           
 LARGEST CORRECTION TO DISP.       -2.179E-16   AT NODE       2269   DOF  3
   INSTANCE: BEAM1                                                                           
          THE FORCE     EQUILIBRIUM RESPONSE WAS LINEAR IN THIS INCREMENT

 AVERAGE MOMENT                      0.00       TIME AVG. MOMENT       694.    
                                                (FROM FORCE     FIELD)
 LARGEST RESIDUAL MOMENT           -1.698E-08   AT NODE        352   DOF  5
   INSTANCE: PADR                                                                            
 LARGEST INCREMENT OF ROTATION     -4.877E-05   AT NODE         27   DOF  5
   INSTANCE: PADL                                                                            
 LARGEST CORRECTION TO ROTATION    -1.629E-19   AT NODE        352   DOF  5
   INSTANCE: PADL                                                                            
          THERE IS ZERO MOMENT    EVERYWHERE

 ITERATION SUMMARY FOR THE INCREMENT:   1 TOTAL ITERATIONS, OF WHICH
   0 ARE SEVERE DISCONTINUITY ITERATIONS AND  1 ARE EQUILIBRIUM ITERATIONS.

 TIME INCREMENT COMPLETED  5.813E-02,  FRACTION OF STEP COMPLETED   1.00    
 STEP TIME COMPLETED       0.200    ,  TOTAL TIME COMPLETED        0.200    
1

   Abaqus 2022                                  Date 30-3ÔÂ-2025   Time 02:04:50
   For use by Supplied by Team-SolidSQUAD under license from Dassault Systemes or its subsidiary.

                                                                                 
                                                                                 
 STEP    2     INCREMENT     1     STEP TIME    0.00    


                        S T E P       2     S T A T I C   A N A L Y S I S


                                                                                          

     AUTOMATIC TIME CONTROL WITH -
          A SUGGESTED INITIAL TIME INCREMENT OF                1.000E-02
          AND A TOTAL TIME PERIOD OF                            1.00    
          THE MINIMUM TIME INCREMENT ALLOWED IS                1.000E-06
          THE MAXIMUM TIME INCREMENT ALLOWED IS                 1.00    

     LINEAR EQUATION SOLVER TYPE         DIRECT SPARSE

 CONVERGENCE TOLERANCE PARAMETERS FOR FORCE    
     CRITERION FOR RESIDUAL FORCE     FOR A NONLINEAR PROBLEM          5.000E-03
     CRITERION FOR DISP.    CORRECTION IN A NONLINEAR PROBLEM          1.000E-02
     INIT. VALUE OF TIME AVG. FORCE     IS TIME AVG. FORCE     IN PREVIOUS STEP
     AVERAGE FORCE     IS TIME AVERAGE FORCE    
     ALTERNATE CRIT. FOR RESIDUAL FORCE     FOR A NONLINEAR PROBLEM    2.000E-02
     CRITERION FOR ZERO FORCE     RELATIVE TO TIME AVRG. FORCE         1.000E-05
     CRITERION FOR RESIDUAL FORCE     WHEN THERE IS ZERO FLUX          1.000E-05
     CRITERION FOR DISP.    CORRECTION WHEN THERE IS ZERO FLUX         1.000E-03
     CRITERION FOR RESIDUAL FORCE     FOR A LINEAR INCREMENT           1.000E-08
     FIELD CONVERSION RATIO                                             1.00    
     CRITERION FOR ZERO FORCE     REL. TO TIME AVRG. MAX. FORCE        1.000E-05
     CRITERION FOR ZERO DISP.    RELATIVE TO CHARACTERISTIC LENGTH     1.000E-08

 CONVERGENCE TOLERANCE PARAMETERS FOR MOMENT   
     CRITERION FOR RESIDUAL MOMENT    FOR A NONLINEAR PROBLEM          5.000E-03
     CRITERION FOR ROTATION CORRECTION IN A NONLINEAR PROBLEM          1.000E-02
     INIT. VALUE OF TIME AVG. MOMENT    IS TIME AVG. MOMENT    IN PREVIOUS STEP
     AVERAGE MOMENT    IS TIME AVERAGE MOMENT   
     ALTERNATE CRIT. FOR RESIDUAL MOMENT    FOR A NONLINEAR PROBLEM    2.000E-02
     CRITERION FOR ZERO MOMENT    RELATIVE TO TIME AVRG. MOMENT        1.000E-05
     CRITERION FOR RESIDUAL MOMENT    WHEN THERE IS ZERO FLUX          1.000E-05
     CRITERION FOR ROTATION CORRECTION WHEN THERE IS ZERO FLUX         1.000E-03
     CRITERION FOR RESIDUAL MOMENT    FOR A LINEAR INCREMENT           1.000E-08
     FIELD CONVERSION RATIO                                             1.00    
     CRITERION FOR ZERO MOMENT    REL. TO TIME AVRG. MAX. MOMENT       1.000E-05

     VOLUMETRIC STRAIN COMPATIBILITY TOLERANCE FOR HYBRID SOLIDS       1.000E-05
     AXIAL STRAIN COMPATIBILITY TOLERANCE FOR HYBRID BEAMS             1.000E-05
     TRANS. SHEAR STRAIN COMPATIBILITY TOLERANCE FOR HYBRID BEAMS      1.000E-05
     SOFT CONTACT CONSTRAINT COMPATIBILITY TOLERANCE FOR P>P0          5.000E-03
     SOFT CONTACT CONSTRAINT COMPATIBILITY TOLERANCE FOR P=0.0         0.100    
     CONTACT FORCE ERROR TOLERANCE FOR CONVERT SDI=YES                 1.00    
     DISPLACEMENT COMPATIBILITY TOLERANCE FOR DCOUP ELEMENTS           1.000E-05
     ROTATION COMPATIBILITY TOLERANCE FOR DCOUP ELEMENTS               1.000E-05

 EQUILIBRIUM WILL BE CHECKED FOR SEVERE DISCONTINUITY ITERATIONS

 TIME INCREMENTATION CONTROL PARAMETERS:
     FIRST EQUILIBRIUM ITERATION FOR CONSECUTIVE DIVERGENCE CHECK              4
     EQUILIBRIUM ITERATION AT WHICH LOG. CONVERGENCE RATE CHECK BEGINS         8
     EQUILIBRIUM ITERATION AFTER WHICH ALTERNATE RESIDUAL IS USED              9
     MAXIMUM EQUILIBRIUM ITERATIONS ALLOWED                                   16
     EQUILIBRIUM ITERATION COUNT FOR CUT-BACK IN NEXT INCREMENT               10
     MAXIMUM EQUILIB. ITERS IN TWO INCREMENTS FOR TIME INCREMENT INCREASE      4
     MAXIMUM ITERATIONS FOR SEVERE DISCONTINUITIES                            50
     MAXIMUM ATTEMPTS ALLOWED IN AN INCREMENT                                  5
     MAXIMUM DISCON. ITERS IN TWO INCREMENTS FOR TIME INCREMENT INCREASE      50
     MAXIMUM CONTACT AUGMENTATIONS FOR *SURFACE BEHAVIOR,AUGMENTED LAGRANGE   50
     CUT-BACK FACTOR AFTER DIVERGENCE                                 0.2500    
     CUT-BACK FACTOR FOR TOO SLOW CONVERGENCE                         0.5000    
     CUT-BACK FACTOR AFTER TOO MANY EQUILIBRIUM ITERATIONS            0.7500    
     CUT-BACK FACTOR AFTER TOO MANY SEVERE DISCONTINUITY ITERATIONS   0.2500    
     CUT-BACK FACTOR AFTER PROBLEMS IN ELEMENT ASSEMBLY               0.2500    
     INCREASE FACTOR AFTER TWO INCREMENTS THAT CONVERGE QUICKLY        1.500    
     MAX. TIME INCREMENT INCREASE FACTOR ALLOWED                       1.500    
     MAX. TIME INCREMENT INCREASE FACTOR ALLOWED (DYNAMICS)            1.250    
     MAX. TIME INCREMENT INCREASE FACTOR ALLOWED (DIFFUSION)           2.000    
     MINIMUM TIME INCREMENT RATIO FOR EXTRAPOLATION TO OCCUR          0.1000    
     MAX. RATIO OF TIME INCREMENT TO STABILITY LIMIT                   1.000    
     FRACTION OF STABILITY LIMIT FOR NEW TIME INCREMENT               0.9500    
     TIME INCREMENT INCREASE FACTOR BEFORE A TIME POINT                1.000    
     GLOBAL STABILIZATION CONTROL IS NOT USED

          PRINT OF INCREMENT NUMBER, TIME, ETC., EVERY    1  INCREMENTS

     THE MAXIMUM NUMBER OF INCREMENTS IN THIS STEP IS                   10000

          UNSYMMETRIC MATRIX STORAGE AND SOLUTION WILL BE USED

     LINEAR EXTRAPOLATION WILL BE USED

     CHARACTERISTIC ELEMENT LENGTH      55.6    

     DETAILS REGARDING ACTUAL SOLUTION WAVEFRONT REQUESTED

     DETAILED OUTPUT OF DIAGNOSTICS TO DATABASE REQUESTED

     PRINT OF INCREMENT NUMBER, TIME, ETC., TO THE MESSAGE FILE EVERY     1  INCREMENTS

     ELEMENT OPERATIONS WILL BE CARRIED OUT IN PARALLEL USING   4 THREADS ON 1 DOMAIN

     COLLECTING STEP CONSTRAINT INFORMATION FOR OVERCONSTRAINT CHECKS


  INCREMENT     1 STARTS. ATTEMPT NUMBER  1, TIME INCREMENT  1.000E-02
 
     INITIAL ELEMENT LOAD BALANCE
            DOMAIN    1     THREAD    NUMBER OF ELEMENTS
                              1            1640
                              2            1687
                              3            1656
                              4            1656
 
	UNSYMMETRIC DIRECT SPARSE SOLVER RUNNING ON
 	1 HOST:        1 MPI RANK  x 4 THREADS
 	NUMBER OF EQUATIONS:     24045
 	NUMBER OF RHS:           1
 	NUMBER OF FLOPS:         5.711e+09

     CHECK POINT   START OF SOLVER    

     CHECK POINT  END OF SOLVER       

       ELAPSED USER TIME (SEC)      =   1.5000    
       ELAPSED SYSTEM TIME (SEC)    =  0.10000    
       ELAPSED TOTAL CPU TIME (SEC) =   1.6000    
       ELAPSED WALLCLOCK TIME (SEC) =          0

               CONVERGENCE CHECKS FOR EQUILIBRIUM ITERATION     1


 AVERAGE FORCE                       47.8       TIME AVG. FORCE        47.8    
 LARGEST RESIDUAL FORCE            -6.014E-09   AT NODE        352   DOF  1
   INSTANCE: PADR                                                                            
 LARGEST INCREMENT OF DISP.        -4.419E-02   AT NODE        188   DOF  3
   INSTANCE: BEAM1                                                                           
 LARGEST CORRECTION TO DISP.       -4.419E-02   AT NODE        188   DOF  3
   INSTANCE: BEAM1                                                                           
          THE FORCE     EQUILIBRIUM RESPONSE WAS LINEAR IN THIS INCREMENT

 AVERAGE MOMENT                      0.00       TIME AVG. MOMENT      2.658E+03
                                                (FROM FORCE     FIELD)
 LARGEST RESIDUAL MOMENT            7.074E-08   AT NODE        352   DOF  5
   INSTANCE: PADR                                                                            
 LARGEST INCREMENT OF ROTATION      2.948E-05   AT NODE         27   DOF  5
   INSTANCE: PADR                                                                            
 LARGEST CORRECTION TO ROTATION     2.948E-05   AT NODE         27   DOF  5
   INSTANCE: PADR                                                                            
          THERE IS ZERO MOMENT    EVERYWHERE

 ITERATION SUMMARY FOR THE INCREMENT:   1 TOTAL ITERATIONS, OF WHICH
   0 ARE SEVERE DISCONTINUITY ITERATIONS AND  1 ARE EQUILIBRIUM ITERATIONS.

 TIME INCREMENT COMPLETED  1.000E-02,  FRACTION OF STEP COMPLETED  1.000E-02
 STEP TIME COMPLETED       1.000E-02,  TOTAL TIME COMPLETED        0.210    


  INCREMENT     2 STARTS. ATTEMPT NUMBER  1, TIME INCREMENT  1.000E-02
 
	SYMMETRIC DIRECT SPARSE SOLVER RUNNING ON
 	1 HOST:        1 MPI RANK  x 4 THREADS
 	NUMBER OF EQUATIONS:     24045
 	NUMBER OF RHS:           1
 	NUMBER OF FLOPS:         5.711e+09

     CHECK POINT   START OF SOLVER    

     CHECK POINT  END OF SOLVER       

       ELAPSED USER TIME (SEC)      =  0.10000    
       ELAPSED SYSTEM TIME (SEC)    =   0.0000    
       ELAPSED TOTAL CPU TIME (SEC) =  0.10000    
       ELAPSED WALLCLOCK TIME (SEC) =          0

               CONVERGENCE CHECKS FOR EQUILIBRIUM ITERATION     1


 AVERAGE FORCE                       55.1       TIME AVG. FORCE        51.4    
 LARGEST RESIDUAL FORCE             2.342E-10   AT NODE        352   DOF  1
   INSTANCE: PADR                                                                            
 LARGEST INCREMENT OF DISP.        -4.419E-02   AT NODE         80   DOF  3
   INSTANCE: BEAM1                                                                           
 LARGEST CORRECTION TO DISP.       -1.141E-12   AT NODE         80   DOF  3
   INSTANCE: BEAM1                                                                           
          THE FORCE     EQUILIBRIUM RESPONSE WAS LINEAR IN THIS INCREMENT

 AVERAGE MOMENT                      0.00       TIME AVG. MOMENT      2.658E+03
                                                (FROM FORCE     FIELD)
 LARGEST RESIDUAL MOMENT            7.996E-09   AT NODE        352   DOF  5
   INSTANCE: PADR                                                                            
 LARGEST INCREMENT OF ROTATION     -2.948E-05   AT NODE         27   DOF  5
   INSTANCE: PADL                                                                            
 LARGEST CORRECTION TO ROTATION    -8.331E-16   AT NODE         27   DOF  5
   INSTANCE: PADL                                                                            
          THERE IS ZERO MOMENT    EVERYWHERE
          TIME INCREMENT MAY NOW INCREASE TO    1.500E-02

 ITERATION SUMMARY FOR THE INCREMENT:   1 TOTAL ITERATIONS, OF WHICH
   0 ARE SEVERE DISCONTINUITY ITERATIONS AND  1 ARE EQUILIBRIUM ITERATIONS.

 TIME INCREMENT COMPLETED  1.000E-02,  FRACTION OF STEP COMPLETED  2.000E-02
 STEP TIME COMPLETED       2.000E-02,  TOTAL TIME COMPLETED        0.220    


  INCREMENT     3 STARTS. ATTEMPT NUMBER  1, TIME INCREMENT  1.500E-02
 
	SYMMETRIC DIRECT SPARSE SOLVER RUNNING ON
 	1 HOST:        1 MPI RANK  x 4 THREADS
 	NUMBER OF EQUATIONS:     24045
 	NUMBER OF RHS:           1
 	NUMBER OF FLOPS:         5.711e+09

     CHECK POINT   START OF SOLVER    

     CHECK POINT  END OF SOLVER       

       ELAPSED USER TIME (SEC)      =  0.10000    
       ELAPSED SYSTEM TIME (SEC)    =   0.0000    
       ELAPSED TOTAL CPU TIME (SEC) =  0.10000    
       ELAPSED WALLCLOCK TIME (SEC) =          0

               CONVERGENCE CHECKS FOR EQUILIBRIUM ITERATION     1


 AVERAGE FORCE                       65.8       TIME AVG. FORCE        56.2    
 LARGEST RESIDUAL FORCE            -2.157E-10   AT NODE        352   DOF  1
   INSTANCE: PADR                                                                            
 LARGEST INCREMENT OF DISP.        -6.629E-02   AT NODE         80   DOF  3
   INSTANCE: BEAM1                                                                           
 LARGEST CORRECTION TO DISP.        8.560E-13   AT NODE         80   DOF  3
   INSTANCE: BEAM1                                                                           
          THE FORCE     EQUILIBRIUM RESPONSE WAS LINEAR IN THIS INCREMENT

 AVERAGE MOMENT                      0.00       TIME AVG. MOMENT      2.861E+03
                                                (FROM FORCE     FIELD)
 LARGEST RESIDUAL MOMENT           -2.989E-08   AT NODE        352   DOF  5
   INSTANCE: PADR                                                                            
 LARGEST INCREMENT OF ROTATION     -4.423E-05   AT NODE         27   DOF  5
   INSTANCE: PADL                                                                            
 LARGEST CORRECTION TO ROTATION     6.249E-16   AT NODE        352   DOF  5
   INSTANCE: PADL                                                                            
          THERE IS ZERO MOMENT    EVERYWHERE
          TIME INCREMENT MAY NOW INCREASE TO    2.250E-02

 ITERATION SUMMARY FOR THE INCREMENT:   1 TOTAL ITERATIONS, OF WHICH
   0 ARE SEVERE DISCONTINUITY ITERATIONS AND  1 ARE EQUILIBRIUM ITERATIONS.

 TIME INCREMENT COMPLETED  1.500E-02,  FRACTION OF STEP COMPLETED  3.500E-02
 STEP TIME COMPLETED       3.500E-02,  TOTAL TIME COMPLETED        0.235    


  INCREMENT     4 STARTS. ATTEMPT NUMBER  1, TIME INCREMENT  2.250E-02
 
	SYMMETRIC DIRECT SPARSE SOLVER RUNNING ON
 	1 HOST:        1 MPI RANK  x 4 THREADS
 	NUMBER OF EQUATIONS:     24045
 	NUMBER OF RHS:           1
 	NUMBER OF FLOPS:         5.711e+09

     CHECK POINT   START OF SOLVER    

     CHECK POINT  END OF SOLVER       

       ELAPSED USER TIME (SEC)      =  0.10000    
       ELAPSED SYSTEM TIME (SEC)    =   0.0000    
       ELAPSED TOTAL CPU TIME (SEC) =  0.10000    
       ELAPSED WALLCLOCK TIME (SEC) =          0

               CONVERGENCE CHECKS FOR EQUILIBRIUM ITERATION     1


 AVERAGE FORCE                       82.0       TIME AVG. FORCE        62.7    
 LARGEST RESIDUAL FORCE            -1.448E-10   AT NODE        352   DOF  1
   INSTANCE: PADR                                                                            
 LARGEST INCREMENT OF DISP.        -9.944E-02   AT NODE         80   DOF  3
   INSTANCE: BEAM1                                                                           
 LARGEST CORRECTION TO DISP.        1.666E-16   AT NODE        310   DOF  3
   INSTANCE: BEAM1                                                                           
          THE FORCE     EQUILIBRIUM RESPONSE WAS LINEAR IN THIS INCREMENT

 AVERAGE MOMENT                      0.00       TIME AVG. MOMENT      3.128E+03
                                                (FROM FORCE     FIELD)
 LARGEST RESIDUAL MOMENT            1.614E-08   AT NODE        352   DOF  5
   INSTANCE: PADL                                                                            
 LARGEST INCREMENT OF ROTATION     -6.634E-05   AT NODE         27   DOF  5
   INSTANCE: PADL                                                                            
 LARGEST CORRECTION TO ROTATION     7.232E-20   AT NODE        352   DOF  5
   INSTANCE: PADL                                                                            
          THERE IS ZERO MOMENT    EVERYWHERE
          TIME INCREMENT MAY NOW INCREASE TO    3.375E-02

 ITERATION SUMMARY FOR THE INCREMENT:   1 TOTAL ITERATIONS, OF WHICH
   0 ARE SEVERE DISCONTINUITY ITERATIONS AND  1 ARE EQUILIBRIUM ITERATIONS.

 TIME INCREMENT COMPLETED  2.250E-02,  FRACTION OF STEP COMPLETED  5.750E-02
 STEP TIME COMPLETED       5.750E-02,  TOTAL TIME COMPLETED        0.258    


  INCREMENT     5 STARTS. ATTEMPT NUMBER  1, TIME INCREMENT  3.375E-02
 
	SYMMETRIC DIRECT SPARSE SOLVER RUNNING ON
 	1 HOST:        1 MPI RANK  x 4 THREADS
 	NUMBER OF EQUATIONS:     24045
 	NUMBER OF RHS:           1
 	NUMBER OF FLOPS:         5.711e+09

     CHECK POINT   START OF SOLVER    

     CHECK POINT  END OF SOLVER       

       ELAPSED USER TIME (SEC)      =  0.10000    
       ELAPSED SYSTEM TIME (SEC)    =   0.0000    
       ELAPSED TOTAL CPU TIME (SEC) =  0.10000    
       ELAPSED WALLCLOCK TIME (SEC) =          0

               CONVERGENCE CHECKS FOR EQUILIBRIUM ITERATION     1


 AVERAGE FORCE                       106.       TIME AVG. FORCE        71.4    
 LARGEST RESIDUAL FORCE            -6.402E-10   AT NODE        352   DOF  1
   INSTANCE: PADR                                                                            
 LARGEST INCREMENT OF DISP.        -0.149       AT NODE         80   DOF  3
   INSTANCE: BEAM1                                                                           
 LARGEST CORRECTION TO DISP.       -1.605E-16   AT NODE       3125   DOF  3
   INSTANCE: BEAM1                                                                           
          THE FORCE     EQUILIBRIUM RESPONSE WAS LINEAR IN THIS INCREMENT

 AVERAGE MOMENT                      0.00       TIME AVG. MOMENT      3.486E+03
                                                (FROM FORCE     FIELD)
 LARGEST RESIDUAL MOMENT            1.935E-08   AT NODE        352   DOF  5
   INSTANCE: PADR                                                                            
 LARGEST INCREMENT OF ROTATION     -9.951E-05   AT NODE         27   DOF  5
   INSTANCE: PADL                                                                            
 LARGEST CORRECTION TO ROTATION    -5.764E-20   AT NODE        352   DOF  5
   INSTANCE: PADL                                                                            
          THERE IS ZERO MOMENT    EVERYWHERE
          TIME INCREMENT MAY NOW INCREASE TO    5.063E-02

 ITERATION SUMMARY FOR THE INCREMENT:   1 TOTAL ITERATIONS, OF WHICH
   0 ARE SEVERE DISCONTINUITY ITERATIONS AND  1 ARE EQUILIBRIUM ITERATIONS.

 TIME INCREMENT COMPLETED  3.375E-02,  FRACTION OF STEP COMPLETED  9.125E-02
 STEP TIME COMPLETED       9.125E-02,  TOTAL TIME COMPLETED        0.291    


  INCREMENT     6 STARTS. ATTEMPT NUMBER  1, TIME INCREMENT  5.063E-02
 
	SYMMETRIC DIRECT SPARSE SOLVER RUNNING ON
 	1 HOST:        1 MPI RANK  x 4 THREADS
 	NUMBER OF EQUATIONS:     24045
 	NUMBER OF RHS:           1
 	NUMBER OF FLOPS:         5.711e+09

     CHECK POINT   START OF SOLVER    

     CHECK POINT  END OF SOLVER       

       ELAPSED USER TIME (SEC)      =   0.0000    
       ELAPSED SYSTEM TIME (SEC)    =   0.0000    
       ELAPSED TOTAL CPU TIME (SEC) =   0.0000    
       ELAPSED WALLCLOCK TIME (SEC) =          0

               CONVERGENCE CHECKS FOR EQUILIBRIUM ITERATION     1


 AVERAGE FORCE                       142.       TIME AVG. FORCE        83.2    
 LARGEST RESIDUAL FORCE              45.3       AT NODE       3048   DOF  1
   INSTANCE: BEAM1                                                                           
 LARGEST INCREMENT OF DISP.        -0.238       AT NODE        188   DOF  3
   INSTANCE: BEAM1                                                                           
 LARGEST CORRECTION TO DISP.       -1.404E-02   AT NODE        186   DOF  3
   INSTANCE: BEAM1                                                                           
          FORCE     EQUILIBRIUM NOT ACHIEVED WITHIN TOLERANCE.

 AVERAGE MOMENT                      0.00       TIME AVG. MOMENT      3.970E+03
                                                (FROM FORCE     FIELD)
 LARGEST RESIDUAL MOMENT           -1.243E-08   AT NODE        352   DOF  5
   INSTANCE: PADL                                                                            
 LARGEST INCREMENT OF ROTATION      1.560E-04   AT NODE         27   DOF  5
   INSTANCE: PADR                                                                            
 LARGEST CORRECTION TO ROTATION     6.778E-06   AT NODE        352   DOF  5
   INSTANCE: PADR                                                                            
          THERE IS ZERO MOMENT    EVERYWHERE
 
	UNSYMMETRIC DIRECT SPARSE SOLVER RUNNING ON
 	1 HOST:        1 MPI RANK  x 4 THREADS
 	NUMBER OF EQUATIONS:     24045
 	NUMBER OF RHS:           1
 	NUMBER OF FLOPS:         5.711e+09

     CHECK POINT   START OF SOLVER    

     CHECK POINT  END OF SOLVER       

       ELAPSED USER TIME (SEC)      =   1.5000    
       ELAPSED SYSTEM TIME (SEC)    =   0.0000    
       ELAPSED TOTAL CPU TIME (SEC) =   1.5000    
       ELAPSED WALLCLOCK TIME (SEC) =          1

               CONVERGENCE CHECKS FOR EQUILIBRIUM ITERATION     2


 AVERAGE FORCE                       143.       TIME AVG. FORCE        83.3    
 LARGEST RESIDUAL FORCE             -217.       AT NODE       3050   DOF  1
   INSTANCE: BEAM1                                                                           
 LARGEST INCREMENT OF DISP.        -0.244       AT NODE        188   DOF  3
   INSTANCE: BEAM1                                                                           
 LARGEST CORRECTION TO DISP.       -6.478E-03   AT NODE         76   DOF  3
   INSTANCE: BEAM1                                                                           
          FORCE     EQUILIBRIUM NOT ACHIEVED WITHIN TOLERANCE.

 AVERAGE MOMENT                      0.00       TIME AVG. MOMENT      3.970E+03
                                                (FROM FORCE     FIELD)
 LARGEST RESIDUAL MOMENT           -3.135E-08   AT NODE        352   DOF  5
   INSTANCE: PADL                                                                            
 LARGEST INCREMENT OF ROTATION      1.590E-04   AT NODE         27   DOF  5
   INSTANCE: PADR                                                                            
 LARGEST CORRECTION TO ROTATION    -2.998E-06   AT NODE        352   DOF  5
   INSTANCE: PADL                                                                            
          THERE IS ZERO MOMENT    EVERYWHERE
 
	UNSYMMETRIC DIRECT SPARSE SOLVER RUNNING ON
 	1 HOST:        1 MPI RANK  x 4 THREADS
 	NUMBER OF EQUATIONS:     24045
 	NUMBER OF RHS:           1
 	NUMBER OF FLOPS:         5.711e+09

     CHECK POINT   START OF SOLVER    

     CHECK POINT  END OF SOLVER       

       ELAPSED USER TIME (SEC)      =   1.5000    
       ELAPSED SYSTEM TIME (SEC)    =   0.0000    
       ELAPSED TOTAL CPU TIME (SEC) =   1.5000    
       ELAPSED WALLCLOCK TIME (SEC) =          0

               CONVERGENCE CHECKS FOR EQUILIBRIUM ITERATION     3


 AVERAGE FORCE                       143.       TIME AVG. FORCE        83.3    
 LARGEST RESIDUAL FORCE              9.62       AT NODE       4150   DOF  1
   INSTANCE: BEAM1                                                                           
 LARGEST INCREMENT OF DISP.        -0.244       AT NODE         80   DOF  3
   INSTANCE: BEAM1                                                                           
 LARGEST CORRECTION TO DISP.       -6.555E-04   AT NODE        296   DOF  1
   INSTANCE: BEAM1                                                                           
          FORCE     EQUILIBRIUM NOT ACHIEVED WITHIN TOLERANCE.

 AVERAGE MOMENT                      0.00       TIME AVG. MOMENT      3.970E+03
                                                (FROM FORCE     FIELD)
 LARGEST RESIDUAL MOMENT            2.356E-08   AT NODE        352   DOF  5
   INSTANCE: PADL                                                                            
 LARGEST INCREMENT OF ROTATION      1.591E-04   AT NODE         27   DOF  5
   INSTANCE: PADR                                                                            
 LARGEST CORRECTION TO ROTATION    -1.057E-07   AT NODE         27   DOF  5
   INSTANCE: PADL                                                                            
          THERE IS ZERO MOMENT    EVERYWHERE
 
	UNSYMMETRIC DIRECT SPARSE SOLVER RUNNING ON
 	1 HOST:        1 MPI RANK  x 4 THREADS
 	NUMBER OF EQUATIONS:     24045
 	NUMBER OF RHS:           1
 	NUMBER OF FLOPS:         5.711e+09

     CHECK POINT   START OF SOLVER    

     CHECK POINT  END OF SOLVER       

       ELAPSED USER TIME (SEC)      =   1.6000    
       ELAPSED SYSTEM TIME (SEC)    =   0.0000    
       ELAPSED TOTAL CPU TIME (SEC) =   1.6000    
       ELAPSED WALLCLOCK TIME (SEC) =          0

               CONVERGENCE CHECKS FOR EQUILIBRIUM ITERATION     4


 AVERAGE FORCE                       143.       TIME AVG. FORCE        83.3    
 LARGEST RESIDUAL FORCE            -0.648       AT NODE       5779   DOF  1
   INSTANCE: BEAM1                                                                           
 LARGEST INCREMENT OF DISP.        -0.244       AT NODE        188   DOF  3
   INSTANCE: BEAM1                                                                           
 LARGEST CORRECTION TO DISP.       -1.405E-04   AT NODE         62   DOF  1
   INSTANCE: BEAM1                                                                           
          FORCE     EQUILIBRIUM NOT ACHIEVED WITHIN TOLERANCE.

 AVERAGE MOMENT                      0.00       TIME AVG. MOMENT      3.970E+03
                                                (FROM FORCE     FIELD)
 LARGEST RESIDUAL MOMENT           -2.033E-08   AT NODE        352   DOF  5
   INSTANCE: PADL                                                                            
 LARGEST INCREMENT OF ROTATION     -1.592E-04   AT NODE         27   DOF  5
   INSTANCE: PADL                                                                            
 LARGEST CORRECTION TO ROTATION    -1.764E-08   AT NODE        352   DOF  5
   INSTANCE: PADL                                                                            
          THERE IS ZERO MOMENT    EVERYWHERE
 
	UNSYMMETRIC DIRECT SPARSE SOLVER RUNNING ON
 	1 HOST:        1 MPI RANK  x 4 THREADS
 	NUMBER OF EQUATIONS:     24045
 	NUMBER OF RHS:           1
 	NUMBER OF FLOPS:         5.711e+09

     CHECK POINT   START OF SOLVER    

     CHECK POINT  END OF SOLVER       

       ELAPSED USER TIME (SEC)      =   1.5000    
       ELAPSED SYSTEM TIME (SEC)    =   0.0000    
       ELAPSED TOTAL CPU TIME (SEC) =   1.5000    
       ELAPSED WALLCLOCK TIME (SEC) =          1

               CONVERGENCE CHECKS FOR EQUILIBRIUM ITERATION     5


 AVERAGE FORCE                       143.       TIME AVG. FORCE        83.3    
 LARGEST RESIDUAL FORCE            -2.709E-03   AT NODE       5779   DOF  1
   INSTANCE: BEAM1                                                                           
 LARGEST INCREMENT OF DISP.        -0.244       AT NODE         80   DOF  3
   INSTANCE: BEAM1                                                                           
 LARGEST CORRECTION TO DISP.       -1.268E-05   AT NODE         62   DOF  1
   INSTANCE: BEAM1                                                                           
          THE FORCE     EQUILIBRIUM EQUATIONS HAVE CONVERGED

 AVERAGE MOMENT                      0.00       TIME AVG. MOMENT      3.970E+03
                                                (FROM FORCE     FIELD)
 LARGEST RESIDUAL MOMENT           -5.347E-08   AT NODE        352   DOF  5
   INSTANCE: PADR                                                                            
 LARGEST INCREMENT OF ROTATION      1.592E-04   AT NODE         27   DOF  5
   INSTANCE: PADR                                                                            
 LARGEST CORRECTION TO ROTATION     9.202E-10   AT NODE         27   DOF  5
   INSTANCE: PADR                                                                            
          THERE IS ZERO MOMENT    EVERYWHERE

 ITERATION SUMMARY FOR THE INCREMENT:   5 TOTAL ITERATIONS, OF WHICH
   0 ARE SEVERE DISCONTINUITY ITERATIONS AND  5 ARE EQUILIBRIUM ITERATIONS.

 TIME INCREMENT COMPLETED  5.063E-02,  FRACTION OF STEP COMPLETED  0.142    
 STEP TIME COMPLETED       0.142    ,  TOTAL TIME COMPLETED        0.342    


  INCREMENT     7 STARTS. ATTEMPT NUMBER  1, TIME INCREMENT  5.063E-02
 
	UNSYMMETRIC DIRECT SPARSE SOLVER RUNNING ON
 	1 HOST:        1 MPI RANK  x 4 THREADS
 	NUMBER OF EQUATIONS:     24045
 	NUMBER OF RHS:           1
 	NUMBER OF FLOPS:         5.711e+09

     CHECK POINT   START OF SOLVER    

     CHECK POINT  END OF SOLVER       

       ELAPSED USER TIME (SEC)      =   1.6000    
       ELAPSED SYSTEM TIME (SEC)    =   0.0000    
       ELAPSED TOTAL CPU TIME (SEC) =   1.6000    
       ELAPSED WALLCLOCK TIME (SEC) =          1
 

 ***WARNING: THE SYSTEM MATRIX HAS 28 NEGATIVE EIGENVALUES.

     NEGATIVE EIGENVALUES MEAN THAT THE SYSTEM MATRIX IS NOT 
     POSITIVE DEFINITE:
     FOR EXAMPLE, A BIFURCATION (BUCKLING) LOAD MAY HAVE BEEN EXCEEDED.

               CONVERGENCE CHECKS FOR EQUILIBRIUM ITERATION     1


 AVERAGE FORCE                       181.       TIME AVG. FORCE        97.3    
 LARGEST RESIDUAL FORCE              897.       AT NODE       6634   DOF  1
   INSTANCE: BEAM1                                                                           
 LARGEST INCREMENT OF DISP.        -0.328       AT NODE        191   DOF  3
   INSTANCE: BEAM1                                                                           
 LARGEST CORRECTION TO DISP.       -8.406E-02   AT NODE        191   DOF  3
   INSTANCE: BEAM1                                                                           
          FORCE     EQUILIBRIUM NOT ACHIEVED WITHIN TOLERANCE.

 AVERAGE MOMENT                      0.00       TIME AVG. MOMENT      4.634E+03
                                                (FROM FORCE     FIELD)
 LARGEST RESIDUAL MOMENT            2.032E-07   AT NODE        352   DOF  5
   INSTANCE: PADR                                                                            
 LARGEST INCREMENT OF ROTATION      2.029E-04   AT NODE         27   DOF  5
   INSTANCE: PADR                                                                            
 LARGEST CORRECTION TO ROTATION     4.376E-05   AT NODE        352   DOF  5
   INSTANCE: PADR                                                                            
          THERE IS ZERO MOMENT    EVERYWHERE
 
	UNSYMMETRIC DIRECT SPARSE SOLVER RUNNING ON
 	1 HOST:        1 MPI RANK  x 4 THREADS
 	NUMBER OF EQUATIONS:     24045
 	NUMBER OF RHS:           1
 	NUMBER OF FLOPS:         5.711e+09

     CHECK POINT   START OF SOLVER    

     CHECK POINT  END OF SOLVER       

       ELAPSED USER TIME (SEC)      =   1.5000    
       ELAPSED SYSTEM TIME (SEC)    =   0.0000    
       ELAPSED TOTAL CPU TIME (SEC) =   1.5000    
       ELAPSED WALLCLOCK TIME (SEC) =          0
 

 ***WARNING: THE SYSTEM MATRIX HAS 94 NEGATIVE EIGENVALUES.
             EXPLANATIONS ARE SUGGESTED AFTER THE FIRST OCCURRENCE OF THIS MESSAGE.

               CONVERGENCE CHECKS FOR EQUILIBRIUM ITERATION     2


 AVERAGE FORCE                       224.       TIME AVG. FORCE        103.    
 LARGEST RESIDUAL FORCE            -1.183E+05   AT NODE       6562   DOF  1
   INSTANCE: BEAM1                                                                           
 LARGEST INCREMENT OF DISP.        -0.326       AT NODE         80   DOF  3
   INSTANCE: BEAM1                                                                           
 LARGEST CORRECTION TO DISP.        0.172       AT NODE       1698   DOF  1
   INSTANCE: BEAM1                                                                           
          FORCE     EQUILIBRIUM NOT ACHIEVED WITHIN TOLERANCE.

 AVERAGE MOMENT                      0.00       TIME AVG. MOMENT      4.634E+03
                                                (FROM FORCE     FIELD)
 LARGEST RESIDUAL MOMENT            3.408E-08   AT NODE        352   DOF  5
   INSTANCE: PADL                                                                            
 LARGEST INCREMENT OF ROTATION     -2.008E-04   AT NODE         27   DOF  5
   INSTANCE: PADL                                                                            
 LARGEST CORRECTION TO ROTATION    -2.083E-06   AT NODE         27   DOF  5
   INSTANCE: PADR                                                                            
          THERE IS ZERO MOMENT    EVERYWHERE
 
	UNSYMMETRIC DIRECT SPARSE SOLVER RUNNING ON
 	1 HOST:        1 MPI RANK  x 4 THREADS
 	NUMBER OF EQUATIONS:     24045
 	NUMBER OF RHS:           1
 	NUMBER OF FLOPS:         5.711e+09

     CHECK POINT   START OF SOLVER    

     CHECK POINT  END OF SOLVER       

       ELAPSED USER TIME (SEC)      =   1.6000    
       ELAPSED SYSTEM TIME (SEC)    =   0.0000    
       ELAPSED TOTAL CPU TIME (SEC) =   1.6000    
       ELAPSED WALLCLOCK TIME (SEC) =          1
 

 ***WARNING: THE SYSTEM MATRIX HAS 91 NEGATIVE EIGENVALUES.
             EXPLANATIONS ARE SUGGESTED AFTER THE FIRST OCCURRENCE OF THIS MESSAGE.

               CONVERGENCE CHECKS FOR EQUILIBRIUM ITERATION     3


 AVERAGE FORCE                       340.       TIME AVG. FORCE        120.    
 LARGEST RESIDUAL FORCE            -1.068E+05   AT NODE       5734   DOF  1
   INSTANCE: BEAM1                                                                           
 LARGEST INCREMENT OF DISP.        -0.463       AT NODE       3049   DOF  3
   INSTANCE: BEAM1                                                                           
 LARGEST CORRECTION TO DISP.       -0.277       AT NODE       1698   DOF  1
   INSTANCE: BEAM1                                                                           
          FORCE     EQUILIBRIUM NOT ACHIEVED WITHIN TOLERANCE.

 AVERAGE MOMENT                      0.00       TIME AVG. MOMENT      4.634E+03
                                                (FROM FORCE     FIELD)
 LARGEST RESIDUAL MOMENT            4.739E-08   AT NODE        352   DOF  5
   INSTANCE: PADR                                                                            
 LARGEST INCREMENT OF ROTATION      2.320E-04   AT NODE         27   DOF  5
   INSTANCE: PADR                                                                            
 LARGEST CORRECTION TO ROTATION     3.119E-05   AT NODE         27   DOF  5
   INSTANCE: PADR                                                                            
          THERE IS ZERO MOMENT    EVERYWHERE
 
	UNSYMMETRIC DIRECT SPARSE SOLVER RUNNING ON
 	1 HOST:        1 MPI RANK  x 4 THREADS
 	NUMBER OF EQUATIONS:     24045
 	NUMBER OF RHS:           1
 	NUMBER OF FLOPS:         5.711e+09

     CHECK POINT   START OF SOLVER    

     CHECK POINT  END OF SOLVER       

       ELAPSED USER TIME (SEC)      =   1.8000    
       ELAPSED SYSTEM TIME (SEC)    =   0.0000    
       ELAPSED TOTAL CPU TIME (SEC) =   1.8000    
       ELAPSED WALLCLOCK TIME (SEC) =          1
 

 ***WARNING: THE SYSTEM MATRIX HAS 90 NEGATIVE EIGENVALUES.
             EXPLANATIONS ARE SUGGESTED AFTER THE FIRST OCCURRENCE OF THIS MESSAGE.

               CONVERGENCE CHECKS FOR EQUILIBRIUM ITERATION     4


 AVERAGE FORCE                       714.       TIME AVG. FORCE        173.    
 LARGEST RESIDUAL FORCE            -2.186E+05   AT NODE       6542   DOF  1
   INSTANCE: BEAM1                                                                           
 LARGEST INCREMENT OF DISP.        -0.584       AT NODE       4517   DOF  1
   INSTANCE: BEAM1                                                                           
 LARGEST CORRECTION TO DISP.        0.620       AT NODE       6542   DOF  1
   INSTANCE: BEAM1                                                                           
          FORCE     EQUILIBRIUM NOT ACHIEVED WITHIN TOLERANCE.

 AVERAGE MOMENT                      0.00       TIME AVG. MOMENT      4.634E+03
                                                (FROM FORCE     FIELD)
 LARGEST RESIDUAL MOMENT            3.112E-07   AT NODE        352   DOF  5
   INSTANCE: PADL                                                                            
 LARGEST INCREMENT OF ROTATION     -8.880E-05   AT NODE         27   DOF  5
   INSTANCE: PADL                                                                            
 LARGEST CORRECTION TO ROTATION    -1.432E-04   AT NODE         27   DOF  5
   INSTANCE: PADR                                                                            
          THERE IS ZERO MOMENT    EVERYWHERE
 

 ***NOTE: THE SOLUTION APPEARS TO BE DIVERGING. CONVERGENCE IS JUDGED UNLIKELY.


  INCREMENT     7 STARTS. ATTEMPT NUMBER  2, TIME INCREMENT  1.266E-02
 
	UNSYMMETRIC DIRECT SPARSE SOLVER RUNNING ON
 	1 HOST:        1 MPI RANK  x 4 THREADS
 	NUMBER OF EQUATIONS:     24045
 	NUMBER OF RHS:           1
 	NUMBER OF FLOPS:         5.711e+09

     CHECK POINT   START OF SOLVER    

     CHECK POINT  END OF SOLVER       

       ELAPSED USER TIME (SEC)      =   1.7000    
       ELAPSED SYSTEM TIME (SEC)    =  0.10000    
       ELAPSED TOTAL CPU TIME (SEC) =   1.8000    
       ELAPSED WALLCLOCK TIME (SEC) =          0

               CONVERGENCE CHECKS FOR EQUILIBRIUM ITERATION     1


 AVERAGE FORCE                       153.       TIME AVG. FORCE        93.2    
 LARGEST RESIDUAL FORCE              36.8       AT NODE       5716   DOF  1
   INSTANCE: BEAM1                                                                           
 LARGEST INCREMENT OF DISP.        -6.952E-02   AT NODE        188   DOF  3
   INSTANCE: BEAM1                                                                           
 LARGEST CORRECTION TO DISP.       -8.445E-03   AT NODE        188   DOF  3
   INSTANCE: BEAM1                                                                           
          FORCE     EQUILIBRIUM NOT ACHIEVED WITHIN TOLERANCE.

 AVERAGE MOMENT                      0.00       TIME AVG. MOMENT      4.634E+03
                                                (FROM FORCE     FIELD)
 LARGEST RESIDUAL MOMENT            2.577E-08   AT NODE        352   DOF  5
   INSTANCE: PADR                                                                            
 LARGEST INCREMENT OF ROTATION      4.405E-05   AT NODE         27   DOF  5
   INSTANCE: PADR                                                                            
 LARGEST CORRECTION TO ROTATION     4.256E-06   AT NODE        352   DOF  5
   INSTANCE: PADR                                                                            
          THERE IS ZERO MOMENT    EVERYWHERE
 
	UNSYMMETRIC DIRECT SPARSE SOLVER RUNNING ON
 	1 HOST:        1 MPI RANK  x 4 THREADS
 	NUMBER OF EQUATIONS:     24045
 	NUMBER OF RHS:           1
 	NUMBER OF FLOPS:         5.711e+09

     CHECK POINT   START OF SOLVER    

     CHECK POINT  END OF SOLVER       

       ELAPSED USER TIME (SEC)      =   1.5000    
       ELAPSED SYSTEM TIME (SEC)    =   0.0000    
       ELAPSED TOTAL CPU TIME (SEC) =   1.5000    
       ELAPSED WALLCLOCK TIME (SEC) =          0

               CONVERGENCE CHECKS FOR EQUILIBRIUM ITERATION     2


 AVERAGE FORCE                       153.       TIME AVG. FORCE        93.2    
 LARGEST RESIDUAL FORCE             -9.19       AT NODE       4590   DOF  1
   INSTANCE: BEAM1                                                                           
 LARGEST INCREMENT OF DISP.        -6.963E-02   AT NODE        188   DOF  3
   INSTANCE: BEAM1                                                                           
 LARGEST CORRECTION TO DISP.       -1.185E-04   AT NODE       6633   DOF  3
   INSTANCE: BEAM1                                                                           
          FORCE     EQUILIBRIUM NOT ACHIEVED WITHIN TOLERANCE.

 AVERAGE MOMENT                      0.00       TIME AVG. MOMENT      4.634E+03
                                                (FROM FORCE     FIELD)
 LARGEST RESIDUAL MOMENT            7.036E-09   AT NODE        352   DOF  5
   INSTANCE: PADR                                                                            
 LARGEST INCREMENT OF ROTATION     -4.411E-05   AT NODE         27   DOF  5
   INSTANCE: PADL                                                                            
 LARGEST CORRECTION TO ROTATION    -6.450E-08   AT NODE        352   DOF  5
   INSTANCE: PADL                                                                            
          THERE IS ZERO MOMENT    EVERYWHERE
 
	UNSYMMETRIC DIRECT SPARSE SOLVER RUNNING ON
 	1 HOST:        1 MPI RANK  x 4 THREADS
 	NUMBER OF EQUATIONS:     24045
 	NUMBER OF RHS:           1
 	NUMBER OF FLOPS:         5.711e+09

     CHECK POINT   START OF SOLVER    

     CHECK POINT  END OF SOLVER       

       ELAPSED USER TIME (SEC)      =   1.6000    
       ELAPSED SYSTEM TIME (SEC)    =  0.10000    
       ELAPSED TOTAL CPU TIME (SEC) =   1.7000    
       ELAPSED WALLCLOCK TIME (SEC) =          1

               CONVERGENCE CHECKS FOR EQUILIBRIUM ITERATION     3


 AVERAGE FORCE                       153.       TIME AVG. FORCE        93.2    
 LARGEST RESIDUAL FORCE             1.029E-03   AT NODE       6625   DOF  1
   INSTANCE: BEAM1                                                                           
 LARGEST INCREMENT OF DISP.        -6.964E-02   AT NODE        188   DOF  3
   INSTANCE: BEAM1                                                                           
 LARGEST CORRECTION TO DISP.       -1.085E-05   AT NODE       6625   DOF  1
   INSTANCE: BEAM1                                                                           
          THE FORCE     EQUILIBRIUM EQUATIONS HAVE CONVERGED

 AVERAGE MOMENT                      0.00       TIME AVG. MOMENT      4.634E+03
                                                (FROM FORCE     FIELD)
 LARGEST RESIDUAL MOMENT            1.131E-08   AT NODE        352   DOF  5
   INSTANCE: PADL                                                                            
 LARGEST INCREMENT OF ROTATION     -4.412E-05   AT NODE         27   DOF  5
   INSTANCE: PADL                                                                            
 LARGEST CORRECTION TO ROTATION     3.435E-09   AT NODE        352   DOF  5
   INSTANCE: PADR                                                                            
          THERE IS ZERO MOMENT    EVERYWHERE

 ITERATION SUMMARY FOR THE INCREMENT:   3 TOTAL ITERATIONS, OF WHICH
   0 ARE SEVERE DISCONTINUITY ITERATIONS AND  3 ARE EQUILIBRIUM ITERATIONS.

 TIME INCREMENT COMPLETED  1.266E-02,  FRACTION OF STEP COMPLETED  0.155    
 STEP TIME COMPLETED       0.155    ,  TOTAL TIME COMPLETED        0.355    


  INCREMENT     8 STARTS. ATTEMPT NUMBER  1, TIME INCREMENT  1.266E-02
 
	UNSYMMETRIC DIRECT SPARSE SOLVER RUNNING ON
 	1 HOST:        1 MPI RANK  x 4 THREADS
 	NUMBER OF EQUATIONS:     24045
 	NUMBER OF RHS:           1
 	NUMBER OF FLOPS:         5.711e+09

     CHECK POINT   START OF SOLVER    

     CHECK POINT  END OF SOLVER       

       ELAPSED USER TIME (SEC)      =   1.5000    
       ELAPSED SYSTEM TIME (SEC)    =   0.0000    
       ELAPSED TOTAL CPU TIME (SEC) =   1.5000    
       ELAPSED WALLCLOCK TIME (SEC) =          1

               CONVERGENCE CHECKS FOR EQUILIBRIUM ITERATION     1


 AVERAGE FORCE                       162.       TIME AVG. FORCE        102.    
 LARGEST RESIDUAL FORCE             -13.2       AT NODE       2677   DOF  1
   INSTANCE: BEAM1                                                                           
 LARGEST INCREMENT OF DISP.        -7.913E-02   AT NODE         80   DOF  3
   INSTANCE: BEAM1                                                                           
 LARGEST CORRECTION TO DISP.       -9.494E-03   AT NODE         82   DOF  3
   INSTANCE: BEAM1                                                                           
          FORCE     EQUILIBRIUM NOT ACHIEVED WITHIN TOLERANCE.

 AVERAGE MOMENT                      0.00       TIME AVG. MOMENT      5.184E+03
                                                (FROM FORCE     FIELD)
 LARGEST RESIDUAL MOMENT           -1.444E-08   AT NODE        352   DOF  5
   INSTANCE: PADL                                                                            
 LARGEST INCREMENT OF ROTATION      4.895E-05   AT NODE         27   DOF  5
   INSTANCE: PADR                                                                            
 LARGEST CORRECTION TO ROTATION     4.838E-06   AT NODE         27   DOF  5
   INSTANCE: PADR                                                                            
          THERE IS ZERO MOMENT    EVERYWHERE
 
	UNSYMMETRIC DIRECT SPARSE SOLVER RUNNING ON
 	1 HOST:        1 MPI RANK  x 4 THREADS
 	NUMBER OF EQUATIONS:     24045
 	NUMBER OF RHS:           1
 	NUMBER OF FLOPS:         5.711e+09

     CHECK POINT   START OF SOLVER    

     CHECK POINT  END OF SOLVER       

       ELAPSED USER TIME (SEC)      =   1.4000    
       ELAPSED SYSTEM TIME (SEC)    =   0.0000    
       ELAPSED TOTAL CPU TIME (SEC) =   1.4000    
       ELAPSED WALLCLOCK TIME (SEC) =          0

               CONVERGENCE CHECKS FOR EQUILIBRIUM ITERATION     2


 AVERAGE FORCE                       162.       TIME AVG. FORCE        102.    
 LARGEST RESIDUAL FORCE            -0.349       AT NODE        369   DOF  3
   INSTANCE: BEAM1                                                                           
 LARGEST INCREMENT OF DISP.        -7.929E-02   AT NODE         80   DOF  3
   INSTANCE: BEAM1                                                                           
 LARGEST CORRECTION TO DISP.       -2.507E-04   AT NODE        143   DOF  1
   INSTANCE: BEAM1                                                                           
          THE FORCE     EQUILIBRIUM EQUATIONS HAVE CONVERGED

 AVERAGE MOMENT                      0.00       TIME AVG. MOMENT      5.184E+03
                                                (FROM FORCE     FIELD)
 LARGEST RESIDUAL MOMENT           -1.232E-08   AT NODE        352   DOF  5
   INSTANCE: PADL                                                                            
 LARGEST INCREMENT OF ROTATION     -4.903E-05   AT NODE         27   DOF  5
   INSTANCE: PADL                                                                            
 LARGEST CORRECTION TO ROTATION    -7.316E-08   AT NODE        352   DOF  5
   INSTANCE: PADL                                                                            
          THERE IS ZERO MOMENT    EVERYWHERE
          TIME INCREMENT MAY NOW INCREASE TO    1.898E-02

 ITERATION SUMMARY FOR THE INCREMENT:   2 TOTAL ITERATIONS, OF WHICH
   0 ARE SEVERE DISCONTINUITY ITERATIONS AND  2 ARE EQUILIBRIUM ITERATIONS.

 TIME INCREMENT COMPLETED  1.266E-02,  FRACTION OF STEP COMPLETED  0.167    
 STEP TIME COMPLETED       0.167    ,  TOTAL TIME COMPLETED        0.367    


  INCREMENT     9 STARTS. ATTEMPT NUMBER  1, TIME INCREMENT  1.898E-02
 
	UNSYMMETRIC DIRECT SPARSE SOLVER RUNNING ON
 	1 HOST:        1 MPI RANK  x 4 THREADS
 	NUMBER OF EQUATIONS:     24045
 	NUMBER OF RHS:           1
 	NUMBER OF FLOPS:         5.711e+09

     CHECK POINT   START OF SOLVER    

     CHECK POINT  END OF SOLVER       

       ELAPSED USER TIME (SEC)      =   1.5000    
       ELAPSED SYSTEM TIME (SEC)    =   0.0000    
       ELAPSED TOTAL CPU TIME (SEC) =   1.5000    
       ELAPSED WALLCLOCK TIME (SEC) =          0
 

 ***WARNING: THE SYSTEM MATRIX HAS 32 NEGATIVE EIGENVALUES.
             EXPLANATIONS ARE SUGGESTED AFTER THE FIRST OCCURRENCE OF THIS MESSAGE.

               CONVERGENCE CHECKS FOR EQUILIBRIUM ITERATION     1


 AVERAGE FORCE                       289.       TIME AVG. FORCE        123.    
 LARGEST RESIDUAL FORCE            -1.024E+05   AT NODE       4591   DOF  1
   INSTANCE: BEAM1                                                                           
 LARGEST INCREMENT OF DISP.        -0.224       AT NODE         74   DOF  1
   INSTANCE: BEAM1                                                                           
 LARGEST CORRECTION TO DISP.       -0.202       AT NODE        367   DOF  1
   INSTANCE: BEAM1                                                                           
          FORCE     EQUILIBRIUM NOT ACHIEVED WITHIN TOLERANCE.

 AVERAGE MOMENT                      0.00       TIME AVG. MOMENT      5.664E+03
                                                (FROM FORCE     FIELD)
 LARGEST RESIDUAL MOMENT            4.662E-08   AT NODE        352   DOF  5
   INSTANCE: PADR                                                                            
 LARGEST INCREMENT OF ROTATION      8.518E-05   AT NODE         27   DOF  5
   INSTANCE: PADR                                                                            
 LARGEST CORRECTION TO ROTATION     1.164E-05   AT NODE         27   DOF  5
   INSTANCE: PADR                                                                            
          THERE IS ZERO MOMENT    EVERYWHERE
 
	UNSYMMETRIC DIRECT SPARSE SOLVER RUNNING ON
 	1 HOST:        1 MPI RANK  x 4 THREADS
 	NUMBER OF EQUATIONS:     24045
 	NUMBER OF RHS:           1
 	NUMBER OF FLOPS:         5.711e+09

     CHECK POINT   START OF SOLVER    

     CHECK POINT  END OF SOLVER       

       ELAPSED USER TIME (SEC)      =   1.6000    
       ELAPSED SYSTEM TIME (SEC)    =  0.10000    
       ELAPSED TOTAL CPU TIME (SEC) =   1.7000    
       ELAPSED WALLCLOCK TIME (SEC) =          1
 

 ***WARNING: THE SYSTEM MATRIX HAS 11 NEGATIVE EIGENVALUES.
             EXPLANATIONS ARE SUGGESTED AFTER THE FIRST OCCURRENCE OF THIS MESSAGE.

               CONVERGENCE CHECKS FOR EQUILIBRIUM ITERATION     2


 AVERAGE FORCE                       242.       TIME AVG. FORCE        117.    
 LARGEST RESIDUAL FORCE            -6.714E+04   AT NODE       4663   DOF  1
   INSTANCE: BEAM1                                                                           
 LARGEST INCREMENT OF DISP.        -0.180       AT NODE       1876   DOF  3
   INSTANCE: BEAM1                                                                           
 LARGEST CORRECTION TO DISP.       -0.329       AT NODE        309   DOF  1
   INSTANCE: BEAM1                                                                           
          FORCE     EQUILIBRIUM NOT ACHIEVED WITHIN TOLERANCE.

 AVERAGE MOMENT                      0.00       TIME AVG. MOMENT      5.664E+03
                                                (FROM FORCE     FIELD)
 LARGEST RESIDUAL MOMENT           -2.956E-08   AT NODE        352   DOF  5
   INSTANCE: PADL                                                                            
 LARGEST INCREMENT OF ROTATION     -9.358E-05   AT NODE         27   DOF  5
   INSTANCE: PADL                                                                            
 LARGEST CORRECTION TO ROTATION    -8.391E-06   AT NODE         27   DOF  5
   INSTANCE: PADL                                                                            
          THERE IS ZERO MOMENT    EVERYWHERE
 
	UNSYMMETRIC DIRECT SPARSE SOLVER RUNNING ON
 	1 HOST:        1 MPI RANK  x 4 THREADS
 	NUMBER OF EQUATIONS:     24045
 	NUMBER OF RHS:           1
 	NUMBER OF FLOPS:         5.711e+09

     CHECK POINT   START OF SOLVER    

     CHECK POINT  END OF SOLVER       

       ELAPSED USER TIME (SEC)      =   1.5000    
       ELAPSED SYSTEM TIME (SEC)    =   0.0000    
       ELAPSED TOTAL CPU TIME (SEC) =   1.5000    
       ELAPSED WALLCLOCK TIME (SEC) =          0
 

 ***WARNING: THE SYSTEM MATRIX HAS 8 NEGATIVE EIGENVALUES.
             EXPLANATIONS ARE SUGGESTED AFTER THE FIRST OCCURRENCE OF THIS MESSAGE.

               CONVERGENCE CHECKS FOR EQUILIBRIUM ITERATION     3


 AVERAGE FORCE                       201.       TIME AVG. FORCE        113.    
 LARGEST RESIDUAL FORCE            -2.610E+04   AT NODE       1713   DOF  3
   INSTANCE: BEAM1                                                                           
 LARGEST INCREMENT OF DISP.        -0.149       AT NODE        949   DOF  3
   INSTANCE: BEAM1                                                                           
 LARGEST CORRECTION TO DISP.        0.184       AT NODE       1714   DOF  1
   INSTANCE: BEAM1                                                                           
          FORCE     EQUILIBRIUM NOT ACHIEVED WITHIN TOLERANCE.

 AVERAGE MOMENT                      0.00       TIME AVG. MOMENT      5.664E+03
                                                (FROM FORCE     FIELD)
 LARGEST RESIDUAL MOMENT            2.936E-08   AT NODE        352   DOF  5
   INSTANCE: PADL                                                                            
 LARGEST INCREMENT OF ROTATION     -8.230E-05   AT NODE         27   DOF  5
   INSTANCE: PADL                                                                            
 LARGEST CORRECTION TO ROTATION    -1.128E-05   AT NODE         27   DOF  5
   INSTANCE: PADR                                                                            
          THERE IS ZERO MOMENT    EVERYWHERE
 
	UNSYMMETRIC DIRECT SPARSE SOLVER RUNNING ON
 	1 HOST:        1 MPI RANK  x 4 THREADS
 	NUMBER OF EQUATIONS:     24045
 	NUMBER OF RHS:           1
 	NUMBER OF FLOPS:         5.711e+09

     CHECK POINT   START OF SOLVER    

     CHECK POINT  END OF SOLVER       

       ELAPSED USER TIME (SEC)      =   1.6000    
       ELAPSED SYSTEM TIME (SEC)    =  0.10000    
       ELAPSED TOTAL CPU TIME (SEC) =   1.7000    
       ELAPSED WALLCLOCK TIME (SEC) =          0
 

 ***WARNING: THE SYSTEM MATRIX HAS 2 NEGATIVE EIGENVALUES.
             EXPLANATIONS ARE SUGGESTED AFTER THE FIRST OCCURRENCE OF THIS MESSAGE.

               CONVERGENCE CHECKS FOR EQUILIBRIUM ITERATION     4


 AVERAGE FORCE                       226.       TIME AVG. FORCE        116.    
 LARGEST RESIDUAL FORCE             7.699E+04   AT NODE       5067   DOF  1
   INSTANCE: BEAM1                                                                           
 LARGEST INCREMENT OF DISP.        -0.173       AT NODE       1885   DOF  3
   INSTANCE: BEAM1                                                                           
 LARGEST CORRECTION TO DISP.        0.109       AT NODE       1803   DOF  1
   INSTANCE: BEAM1                                                                           
          FORCE     EQUILIBRIUM NOT ACHIEVED WITHIN TOLERANCE.

 AVERAGE MOMENT                      0.00       TIME AVG. MOMENT      5.664E+03
                                                (FROM FORCE     FIELD)
 LARGEST RESIDUAL MOMENT           -1.785E-08   AT NODE        352   DOF  5
   INSTANCE: PADR                                                                            
 LARGEST INCREMENT OF ROTATION     -7.529E-05   AT NODE         27   DOF  5
   INSTANCE: PADL                                                                            
 LARGEST CORRECTION TO ROTATION    -7.003E-06   AT NODE         27   DOF  5
   INSTANCE: PADR                                                                            
          THERE IS ZERO MOMENT    EVERYWHERE
 

 ***NOTE: THE SOLUTION APPEARS TO BE DIVERGING. CONVERGENCE IS JUDGED UNLIKELY.


  INCREMENT     9 STARTS. ATTEMPT NUMBER  2, TIME INCREMENT  4.746E-03
 
	UNSYMMETRIC DIRECT SPARSE SOLVER RUNNING ON
 	1 HOST:        1 MPI RANK  x 4 THREADS
 	NUMBER OF EQUATIONS:     24045
 	NUMBER OF RHS:           1
 	NUMBER OF FLOPS:         5.711e+09

     CHECK POINT   START OF SOLVER    

     CHECK POINT  END OF SOLVER       

       ELAPSED USER TIME (SEC)      =   1.5000    
       ELAPSED SYSTEM TIME (SEC)    =   0.0000    
       ELAPSED TOTAL CPU TIME (SEC) =   1.5000    
       ELAPSED WALLCLOCK TIME (SEC) =          1

               CONVERGENCE CHECKS FOR EQUILIBRIUM ITERATION     1


 AVERAGE FORCE                       166.       TIME AVG. FORCE        109.    
 LARGEST RESIDUAL FORCE             -3.99       AT NODE        304   DOF  1
   INSTANCE: BEAM1                                                                           
 LARGEST INCREMENT OF DISP.        -3.135E-02   AT NODE        188   DOF  3
   INSTANCE: BEAM1                                                                           
 LARGEST CORRECTION TO DISP.       -1.622E-03   AT NODE         76   DOF  3
   INSTANCE: BEAM1                                                                           
          FORCE     EQUILIBRIUM NOT ACHIEVED WITHIN TOLERANCE.

 AVERAGE MOMENT                      0.00       TIME AVG. MOMENT      5.664E+03
                                                (FROM FORCE     FIELD)
 LARGEST RESIDUAL MOMENT           -5.217E-09   AT NODE        352   DOF  5
   INSTANCE: PADL                                                                            
 LARGEST INCREMENT OF ROTATION      1.924E-05   AT NODE         27   DOF  5
   INSTANCE: PADR                                                                            
 LARGEST CORRECTION TO ROTATION     8.500E-07   AT NODE         27   DOF  5
   INSTANCE: PADR                                                                            
          THERE IS ZERO MOMENT    EVERYWHERE
 
	UNSYMMETRIC DIRECT SPARSE SOLVER RUNNING ON
 	1 HOST:        1 MPI RANK  x 4 THREADS
 	NUMBER OF EQUATIONS:     24045
[...]
 	1 HOST:        1 MPI RANK  x 4 THREADS
 	NUMBER OF EQUATIONS:     24045
 	NUMBER OF RHS:           1
 	NUMBER OF FLOPS:         5.711e+09

     CHECK POINT   START OF SOLVER    

     CHECK POINT  END OF SOLVER       

       ELAPSED USER TIME (SEC)      =   1.5000    
       ELAPSED SYSTEM TIME (SEC)    =   0.0000    
       ELAPSED TOTAL CPU TIME (SEC) =   1.5000    
       ELAPSED WALLCLOCK TIME (SEC) =          1

               CONVERGENCE CHECKS FOR EQUILIBRIUM ITERATION     4


 AVERAGE FORCE                       801.       TIME AVG. FORCE        493.    
 LARGEST RESIDUAL FORCE             -21.9       AT NODE       2274   DOF  3
   INSTANCE: BEAM1                                                                           
 LARGEST INCREMENT OF DISP.         -2.53       AT NODE         81   DOF  3
   INSTANCE: BEAM1                                                                           
 LARGEST CORRECTION TO DISP.        7.814E-04   AT NODE       2273   DOF  3
   INSTANCE: BEAM1                                                                           
          FORCE     EQUILIBRIUM NOT ACHIEVED WITHIN TOLERANCE.

 AVERAGE MOMENT                      0.00       TIME AVG. MOMENT      2.725E+04
                                                (FROM FORCE     FIELD)
 LARGEST RESIDUAL MOMENT           -1.132E-07   AT NODE        352   DOF  5
   INSTANCE: PADR                                                                            
 LARGEST INCREMENT OF ROTATION     -1.245E-03   AT NODE         27   DOF  5
   INSTANCE: PADL                                                                            
 LARGEST CORRECTION TO ROTATION    -7.614E-08   AT NODE        352   DOF  5
   INSTANCE: PADR                                                                            
          THERE IS ZERO MOMENT    EVERYWHERE
 
	UNSYMMETRIC DIRECT SPARSE SOLVER RUNNING ON
 	1 HOST:        1 MPI RANK  x 4 THREADS
 	NUMBER OF EQUATIONS:     24045
 	NUMBER OF RHS:           1
 	NUMBER OF FLOPS:         5.711e+09

     CHECK POINT   START OF SOLVER    

     CHECK POINT  END OF SOLVER       

       ELAPSED USER TIME (SEC)      =   1.5000    
       ELAPSED SYSTEM TIME (SEC)    =   0.0000    
       ELAPSED TOTAL CPU TIME (SEC) =   1.5000    
       ELAPSED WALLCLOCK TIME (SEC) =          0

               CONVERGENCE CHECKS FOR EQUILIBRIUM ITERATION     5


 AVERAGE FORCE                       801.       TIME AVG. FORCE        493.    
 LARGEST RESIDUAL FORCE              266.       AT NODE       5843   DOF  3
   INSTANCE: BEAM1                                                                           
 LARGEST INCREMENT OF DISP.         -2.53       AT NODE         81   DOF  3
   INSTANCE: BEAM1                                                                           
 LARGEST CORRECTION TO DISP.        6.501E-03   AT NODE       2265   DOF  3
   INSTANCE: BEAM1                                                                           
          FORCE     EQUILIBRIUM NOT ACHIEVED WITHIN TOLERANCE.

 AVERAGE MOMENT                      0.00       TIME AVG. MOMENT      2.725E+04
                                                (FROM FORCE     FIELD)
 LARGEST RESIDUAL MOMENT           -7.611E-07   AT NODE        352   DOF  5
   INSTANCE: PADR                                                                            
 LARGEST INCREMENT OF ROTATION     -1.245E-03   AT NODE         27   DOF  5
   INSTANCE: PADL                                                                            
 LARGEST CORRECTION TO ROTATION    -6.171E-07   AT NODE         27   DOF  5
   INSTANCE: PADR                                                                            
          THERE IS ZERO MOMENT    EVERYWHERE
 

 ***NOTE: THE SOLUTION APPEARS TO BE DIVERGING. CONVERGENCE IS JUDGED UNLIKELY.


  INCREMENT   113 STARTS. ATTEMPT NUMBER  2, TIME INCREMENT  9.428E-04
 
	UNSYMMETRIC DIRECT SPARSE SOLVER RUNNING ON
 	1 HOST:        1 MPI RANK  x 4 THREADS
 	NUMBER OF EQUATIONS:     24045
 	NUMBER OF RHS:           1
 	NUMBER OF FLOPS:         5.711e+09

     CHECK POINT   START OF SOLVER    

     CHECK POINT  END OF SOLVER       

       ELAPSED USER TIME (SEC)      =   1.5000    
       ELAPSED SYSTEM TIME (SEC)    =  0.10000    
       ELAPSED TOTAL CPU TIME (SEC) =   1.6000    
       ELAPSED WALLCLOCK TIME (SEC) =          0

               CONVERGENCE CHECKS FOR EQUILIBRIUM ITERATION     1


 AVERAGE FORCE                       798.       TIME AVG. FORCE        492.    
 LARGEST RESIDUAL FORCE            -0.280       AT NODE       5456   DOF  1
   INSTANCE: BEAM1                                                                           
 LARGEST INCREMENT OF DISP.        -0.620       AT NODE         81   DOF  3
   INSTANCE: BEAM1                                                                           
 LARGEST CORRECTION TO DISP.       -6.106E-03   AT NODE       4669   DOF  3
   INSTANCE: BEAM1                                                                           
          THE FORCE     EQUILIBRIUM EQUATIONS HAVE CONVERGED

 AVERAGE MOMENT                      0.00       TIME AVG. MOMENT      2.725E+04
                                                (FROM FORCE     FIELD)
 LARGEST RESIDUAL MOMENT            1.032E-07   AT NODE        352   DOF  5
   INSTANCE: PADR                                                                            
 LARGEST INCREMENT OF ROTATION     -3.053E-04   AT NODE         27   DOF  5
   INSTANCE: PADL                                                                            
 LARGEST CORRECTION TO ROTATION     2.991E-06   AT NODE        352   DOF  5
   INSTANCE: PADR                                                                            
          THERE IS ZERO MOMENT    EVERYWHERE
          TIME INCREMENT MAY NOW INCREASE TO    1.414E-03

 ITERATION SUMMARY FOR THE INCREMENT:   1 TOTAL ITERATIONS, OF WHICH
   0 ARE SEVERE DISCONTINUITY ITERATIONS AND  1 ARE EQUILIBRIUM ITERATIONS.

 TIME INCREMENT COMPLETED  9.428E-04,  FRACTION OF STEP COMPLETED  0.993    
 STEP TIME COMPLETED       0.993    ,  TOTAL TIME COMPLETED         1.19    


  INCREMENT   114 STARTS. ATTEMPT NUMBER  1, TIME INCREMENT  1.414E-03
 
	UNSYMMETRIC DIRECT SPARSE SOLVER RUNNING ON
 	1 HOST:        1 MPI RANK  x 4 THREADS
 	NUMBER OF EQUATIONS:     24045
 	NUMBER OF RHS:           1
 	NUMBER OF FLOPS:         5.711e+09

     CHECK POINT   START OF SOLVER    

     CHECK POINT  END OF SOLVER       

       ELAPSED USER TIME (SEC)      =   1.6000    
       ELAPSED SYSTEM TIME (SEC)    =   0.0000    
       ELAPSED TOTAL CPU TIME (SEC) =   1.6000    
       ELAPSED WALLCLOCK TIME (SEC) =          0

               CONVERGENCE CHECKS FOR EQUILIBRIUM ITERATION     1


 AVERAGE FORCE                       800.       TIME AVG. FORCE        495.    
 LARGEST RESIDUAL FORCE              4.74       AT NODE       5861   DOF  1
   INSTANCE: BEAM1                                                                           
 LARGEST INCREMENT OF DISP.        -0.940       AT NODE         81   DOF  3
   INSTANCE: BEAM1                                                                           
 LARGEST CORRECTION TO DISP.       -1.002E-02   AT NODE       2274   DOF  3
   INSTANCE: BEAM1                                                                           
          FORCE     EQUILIBRIUM NOT ACHIEVED WITHIN TOLERANCE.

 AVERAGE MOMENT                      0.00       TIME AVG. MOMENT      2.740E+04
                                                (FROM FORCE     FIELD)
 LARGEST RESIDUAL MOMENT           -2.580E-07   AT NODE        352   DOF  5
   INSTANCE: PADR                                                                            
 LARGEST INCREMENT OF ROTATION     -4.629E-04   AT NODE         27   DOF  5
   INSTANCE: PADL                                                                            
 LARGEST CORRECTION TO ROTATION     4.927E-06   AT NODE        352   DOF  5
   INSTANCE: PADR                                                                            
          THERE IS ZERO MOMENT    EVERYWHERE
 
	UNSYMMETRIC DIRECT SPARSE SOLVER RUNNING ON
 	1 HOST:        1 MPI RANK  x 4 THREADS
 	NUMBER OF EQUATIONS:     24045
 	NUMBER OF RHS:           1
 	NUMBER OF FLOPS:         5.711e+09

     CHECK POINT   START OF SOLVER    

     CHECK POINT  END OF SOLVER       

       ELAPSED USER TIME (SEC)      =   1.5000    
       ELAPSED SYSTEM TIME (SEC)    =   0.0000    
       ELAPSED TOTAL CPU TIME (SEC) =   1.5000    
       ELAPSED WALLCLOCK TIME (SEC) =          1

               CONVERGENCE CHECKS FOR EQUILIBRIUM ITERATION     2


 AVERAGE FORCE                       800.       TIME AVG. FORCE        495.    
 LARGEST RESIDUAL FORCE            -2.513E-03   AT NODE       5871   DOF  1
   INSTANCE: BEAM1                                                                           
 LARGEST INCREMENT OF DISP.        -0.940       AT NODE         81   DOF  3
   INSTANCE: BEAM1                                                                           
 LARGEST CORRECTION TO DISP.       -5.472E-05   AT NODE       2283   DOF  1
   INSTANCE: BEAM1                                                                           
          THE FORCE     EQUILIBRIUM EQUATIONS HAVE CONVERGED

 AVERAGE MOMENT                      0.00       TIME AVG. MOMENT      2.740E+04
                                                (FROM FORCE     FIELD)
 LARGEST RESIDUAL MOMENT            8.752E-08   AT NODE        352   DOF  5
   INSTANCE: PADR                                                                            
 LARGEST INCREMENT OF ROTATION     -4.629E-04   AT NODE         27   DOF  5
   INSTANCE: PADL                                                                            
 LARGEST CORRECTION TO ROTATION     3.471E-09   AT NODE        352   DOF  5
   INSTANCE: PADL                                                                            
          THERE IS ZERO MOMENT    EVERYWHERE
          TIME INCREMENT MAY NOW INCREASE TO    2.121E-03

 ITERATION SUMMARY FOR THE INCREMENT:   2 TOTAL ITERATIONS, OF WHICH
   0 ARE SEVERE DISCONTINUITY ITERATIONS AND  2 ARE EQUILIBRIUM ITERATIONS.

 TIME INCREMENT COMPLETED  1.414E-03,  FRACTION OF STEP COMPLETED  0.995    
 STEP TIME COMPLETED       0.995    ,  TOTAL TIME COMPLETED         1.19    


  INCREMENT   115 STARTS. ATTEMPT NUMBER  1, TIME INCREMENT  2.121E-03
 
	UNSYMMETRIC DIRECT SPARSE SOLVER RUNNING ON
 	1 HOST:        1 MPI RANK  x 4 THREADS
 	NUMBER OF EQUATIONS:     24045
 	NUMBER OF RHS:           1
 	NUMBER OF FLOPS:         5.711e+09

     CHECK POINT   START OF SOLVER    

     CHECK POINT  END OF SOLVER       

       ELAPSED USER TIME (SEC)      =   1.5000    
       ELAPSED SYSTEM TIME (SEC)    =   0.0000    
       ELAPSED TOTAL CPU TIME (SEC) =   1.5000    
       ELAPSED WALLCLOCK TIME (SEC) =          1

               CONVERGENCE CHECKS FOR EQUILIBRIUM ITERATION     1


 AVERAGE FORCE                       802.       TIME AVG. FORCE        498.    
 LARGEST RESIDUAL FORCE              57.4       AT NODE       5438   DOF  3
   INSTANCE: BEAM1                                                                           
 LARGEST INCREMENT OF DISP.         -1.43       AT NODE         81   DOF  3
   INSTANCE: BEAM1                                                                           
 LARGEST CORRECTION TO DISP.       -2.262E-02   AT NODE        924   DOF  3
   INSTANCE: BEAM1                                                                           
          FORCE     EQUILIBRIUM NOT ACHIEVED WITHIN TOLERANCE.

 AVERAGE MOMENT                      0.00       TIME AVG. MOMENT      2.755E+04
                                                (FROM FORCE     FIELD)
 LARGEST RESIDUAL MOMENT           -1.087E-07   AT NODE        352   DOF  5
   INSTANCE: PADR                                                                            
 LARGEST INCREMENT OF ROTATION     -7.051E-04   AT NODE         27   DOF  5
   INSTANCE: PADL                                                                            
 LARGEST CORRECTION TO ROTATION     1.084E-05   AT NODE        352   DOF  5
   INSTANCE: PADR                                                                            
          THERE IS ZERO MOMENT    EVERYWHERE
 
	UNSYMMETRIC DIRECT SPARSE SOLVER RUNNING ON
 	1 HOST:        1 MPI RANK  x 4 THREADS
 	NUMBER OF EQUATIONS:     24045
 	NUMBER OF RHS:           1
 	NUMBER OF FLOPS:         5.711e+09

     CHECK POINT   START OF SOLVER    

     CHECK POINT  END OF SOLVER       

       ELAPSED USER TIME (SEC)      =   1.5000    
       ELAPSED SYSTEM TIME (SEC)    =   0.0000    
       ELAPSED TOTAL CPU TIME (SEC) =   1.5000    
       ELAPSED WALLCLOCK TIME (SEC) =          0

               CONVERGENCE CHECKS FOR EQUILIBRIUM ITERATION     2


 AVERAGE FORCE                       802.       TIME AVG. FORCE        498.    
 LARGEST RESIDUAL FORCE             0.824       AT NODE       1320   DOF  3
   INSTANCE: BEAM1                                                                           
 LARGEST INCREMENT OF DISP.         -1.43       AT NODE         81   DOF  3
   INSTANCE: BEAM1                                                                           
 LARGEST CORRECTION TO DISP.       -7.945E-04   AT NODE       1320   DOF  3
   INSTANCE: BEAM1                                                                           
          THE FORCE     EQUILIBRIUM EQUATIONS HAVE CONVERGED

 AVERAGE MOMENT                      0.00       TIME AVG. MOMENT      2.755E+04
                                                (FROM FORCE     FIELD)
 LARGEST RESIDUAL MOMENT            1.998E-07   AT NODE        352   DOF  5
   INSTANCE: PADR                                                                            
 LARGEST INCREMENT OF ROTATION     -7.052E-04   AT NODE         27   DOF  5
   INSTANCE: PADL                                                                            
 LARGEST CORRECTION TO ROTATION    -7.249E-08   AT NODE        352   DOF  5
   INSTANCE: PADL                                                                            
          THERE IS ZERO MOMENT    EVERYWHERE
          TIME INCREMENT MAY NOW INCREASE TO    3.182E-03

 ITERATION SUMMARY FOR THE INCREMENT:   2 TOTAL ITERATIONS, OF WHICH
   0 ARE SEVERE DISCONTINUITY ITERATIONS AND  2 ARE EQUILIBRIUM ITERATIONS.

 TIME INCREMENT COMPLETED  2.121E-03,  FRACTION OF STEP COMPLETED  0.997    
 STEP TIME COMPLETED       0.997    ,  TOTAL TIME COMPLETED         1.20    


  INCREMENT   116 STARTS. ATTEMPT NUMBER  1, TIME INCREMENT  3.064E-03
 
	UNSYMMETRIC DIRECT SPARSE SOLVER RUNNING ON
 	1 HOST:        1 MPI RANK  x 4 THREADS
 	NUMBER OF EQUATIONS:     24045
 	NUMBER OF RHS:           1
 	NUMBER OF FLOPS:         5.711e+09

     CHECK POINT   START OF SOLVER    

     CHECK POINT  END OF SOLVER       

       ELAPSED USER TIME (SEC)      =   1.5000    
       ELAPSED SYSTEM TIME (SEC)    =   0.0000    
       ELAPSED TOTAL CPU TIME (SEC) =   1.5000    
       ELAPSED WALLCLOCK TIME (SEC) =          0

               CONVERGENCE CHECKS FOR EQUILIBRIUM ITERATION     1


 AVERAGE FORCE                       805.       TIME AVG. FORCE        500.    
 LARGEST RESIDUAL FORCE             -31.3       AT NODE        185   DOF  1
   INSTANCE: BEAM1                                                                           
 LARGEST INCREMENT OF DISP.         -2.11       AT NODE         81   DOF  3
   INSTANCE: BEAM1                                                                           
 LARGEST CORRECTION TO DISP.       -4.548E-02   AT NODE       2679   DOF  3
   INSTANCE: BEAM1                                                                           
          FORCE     EQUILIBRIUM NOT ACHIEVED WITHIN TOLERANCE.

 AVERAGE MOMENT                      0.00       TIME AVG. MOMENT      2.770E+04
                                                (FROM FORCE     FIELD)
 LARGEST RESIDUAL MOMENT           -1.594E-07   AT NODE        352   DOF  5
   INSTANCE: PADR                                                                            
 LARGEST INCREMENT OF ROTATION     -1.041E-03   AT NODE         27   DOF  5
   INSTANCE: PADL                                                                            
 LARGEST CORRECTION TO ROTATION    -2.222E-05   AT NODE         27   DOF  5
   INSTANCE: PADL                                                                            
          THERE IS ZERO MOMENT    EVERYWHERE
 
	UNSYMMETRIC DIRECT SPARSE SOLVER RUNNING ON
 	1 HOST:        1 MPI RANK  x 4 THREADS
 	NUMBER OF EQUATIONS:     24045
 	NUMBER OF RHS:           1
 	NUMBER OF FLOPS:         5.711e+09

     CHECK POINT   START OF SOLVER    

     CHECK POINT  END OF SOLVER       

       ELAPSED USER TIME (SEC)      =   1.5000    
       ELAPSED SYSTEM TIME (SEC)    =   0.0000    
       ELAPSED TOTAL CPU TIME (SEC) =   1.5000    
       ELAPSED WALLCLOCK TIME (SEC) =          1

               CONVERGENCE CHECKS FOR EQUILIBRIUM ITERATION     2


 AVERAGE FORCE                       805.       TIME AVG. FORCE        500.    
 LARGEST RESIDUAL FORCE            -0.219       AT NODE       6651   DOF  1
   INSTANCE: BEAM1                                                                           
 LARGEST INCREMENT OF DISP.         -2.11       AT NODE         81   DOF  3
   INSTANCE: BEAM1                                                                           
 LARGEST CORRECTION TO DISP.        1.756E-04   AT NODE       3082   DOF  3
   INSTANCE: BEAM1                                                                           
          THE FORCE     EQUILIBRIUM EQUATIONS HAVE CONVERGED

 AVERAGE MOMENT                      0.00       TIME AVG. MOMENT      2.770E+04
                                                (FROM FORCE     FIELD)
 LARGEST RESIDUAL MOMENT           -5.971E-07   AT NODE        352   DOF  5
   INSTANCE: PADR                                                                            
 LARGEST INCREMENT OF ROTATION     -1.041E-03   AT NODE         27   DOF  5
   INSTANCE: PADL                                                                            
 LARGEST CORRECTION TO ROTATION     1.168E-08   AT NODE         27   DOF  5
   INSTANCE: PADL                                                                            
          THERE IS ZERO MOMENT    EVERYWHERE

 ITERATION SUMMARY FOR THE INCREMENT:   2 TOTAL ITERATIONS, OF WHICH
   0 ARE SEVERE DISCONTINUITY ITERATIONS AND  2 ARE EQUILIBRIUM ITERATIONS.

 TIME INCREMENT COMPLETED  3.064E-03,  FRACTION OF STEP COMPLETED   1.00    
 STEP TIME COMPLETED        1.00    ,  TOTAL TIME COMPLETED         1.20    


          THE ANALYSIS HAS BEEN COMPLETED



     ANALYSIS SUMMARY:
     TOTAL OF        123  INCREMENTS
                      24  CUTBACKS IN AUTOMATIC INCREMENTATION
                     486  ITERATIONS INCLUDING CONTACT ITERATIONS IF PRESENT
                     486  PASSES THROUGH THE EQUATION SOLVER OF WHICH 
                     475  INVOLVE MATRIX DECOMPOSITION, INCLUDING
                       0  DECOMPOSITION(S) OF THE MASS MATRIX
                       1  REORDERING OF EQUATIONS TO MINIMIZE WAVEFRONT
                       0  ADDITIONAL RESIDUAL EVALUATIONS FOR LINE SEARCHES
                       0  ADDITIONAL OPERATOR EVALUATIONS FOR LINE SEARCHES
                       2  WARNING MESSAGES DURING USER INPUT PROCESSING
                     170  WARNING MESSAGES DURING ANALYSIS
                       0  ANALYSIS WARNINGS ARE NUMERICAL PROBLEM MESSAGES
                     170  ANALYSIS WARNINGS ARE NEGATIVE EIGENVALUE MESSAGES
                       0  ERROR MESSAGES



     JOB TIME SUMMARY
       USER TIME (SEC)      =   1124.8    
       SYSTEM TIME (SEC)    =   29.400    
       TOTAL CPU TIME (SEC) =   1154.2    
       WALLCLOCK TIME (SEC) =        349
