1

   Abaqus 2022                                  Date 30-3ÔÂ-2025   Time 02:10:56
   For use by Supplied by Team-SolidSQUAD under license from Dassault Systemes or its subsidiary.

                                                                                 
                                                                                 
 STEP    1     INCREMENT     1     STEP TIME    0.00    


                        S T E P       1     S T A T I C   A N A L Y S I S


                                                                                          

     AUTOMATIC TIME CONTROL WITH -
          A SUGGESTED INITIAL TIME INCREMENT OF                1.000E-02
          AND A TOTAL TIME PERIOD OF                           0.200    
          THE MINIMUM TIME INCREMENT ALLOWED IS                1.000E-06
          THE MAXIMUM TIME INCREMENT ALLOWED IS                0.200    

     LINEAR EQUATION SOLVER TYPE         DIRECT SPARSE

 CONVERGENCE TOLERANCE PARAMETERS FOR FORCE    
     CRITERION FOR RESIDUAL FORCE     FOR A NONLINEAR PROBLEM          5.000E-03
     CRITERION FOR DISP.    CORRECTION IN A NONLINEAR PROBLEM          1.000E-02
     INITIAL VALUE OF TIME AVERAGE FORCE                               1.000E-02
     AVERAGE FORCE     IS TIME AVERAGE FORCE    
     ALTERNATE CRIT. FOR RESIDUAL FORCE     FOR A NONLINEAR PROBLEM    2.000E-02
     CRITERION FOR ZERO FORCE     RELATIVE TO TIME AVRG. FORCE         1.000E-05
     CRITERION FOR RESIDUAL FORCE     WHEN THERE IS ZERO FLUX          1.000E-05
     CRITERION FOR DISP.    CORRECTION WHEN THERE IS ZERO FLUX         1.000E-03
     CRITERION FOR RESIDUAL FORCE     FOR A LINEAR INCREMENT           1.000E-08
     FIELD CONVERSION RATIO                                             1.00    
     CRITERION FOR ZERO FORCE     REL. TO TIME AVRG. MAX. FORCE        1.000E-05
     CRITERION FOR ZERO DISP.    RELATIVE TO CHARACTERISTIC LENGTH     1.000E-08

 CONVERGENCE TOLERANCE PARAMETERS FOR MOMENT   
     CRITERION FOR RESIDUAL MOMENT    FOR A NONLINEAR PROBLEM          5.000E-03
     CRITERION FOR ROTATION CORRECTION IN A NONLINEAR PROBLEM          1.000E-02
     INITIAL VALUE OF TIME AVERAGE MOMENT                              1.000E-02
     AVERAGE MOMENT    IS TIME AVERAGE MOMENT   
     ALTERNATE CRIT. FOR RESIDUAL MOMENT    FOR A NONLINEAR PROBLEM    2.000E-02
     CRITERION FOR ZERO MOMENT    RELATIVE TO TIME AVRG. MOMENT        1.000E-05
     CRITERION FOR RESIDUAL MOMENT    WHEN THERE IS ZERO FLUX          1.000E-05
     CRITERION FOR ROTATION CORRECTION WHEN THERE IS ZERO FLUX         1.000E-03
     CRITERION FOR RESIDUAL MOMENT    FOR A LINEAR INCREMENT           1.000E-08
     FIELD CONVERSION RATIO                                             1.00    
     CRITERION FOR ZERO MOMENT    REL. TO TIME AVRG. MAX. MOMENT       1.000E-05

     VOLUMETRIC STRAIN COMPATIBILITY TOLERANCE FOR HYBRID SOLIDS       1.000E-05
     AXIAL STRAIN COMPATIBILITY TOLERANCE FOR HYBRID BEAMS             1.000E-05
     TRANS. SHEAR STRAIN COMPATIBILITY TOLERANCE FOR HYBRID BEAMS      1.000E-05
     SOFT CONTACT CONSTRAINT COMPATIBILITY TOLERANCE FOR P>P0          5.000E-03
     SOFT CONTACT CONSTRAINT COMPATIBILITY TOLERANCE FOR P=0.0         0.100    
     CONTACT FORCE ERROR TOLERANCE FOR CONVERT SDI=YES                 1.00    
     DISPLACEMENT COMPATIBILITY TOLERANCE FOR DCOUP ELEMENTS           1.000E-05
     ROTATION COMPATIBILITY TOLERANCE FOR DCOUP ELEMENTS               1.000E-05

 EQUILIBRIUM WILL BE CHECKED FOR SEVERE DISCONTINUITY ITERATIONS

 TIME INCREMENTATION CONTROL PARAMETERS:
     FIRST EQUILIBRIUM ITERATION FOR CONSECUTIVE DIVERGENCE CHECK              4
     EQUILIBRIUM ITERATION AT WHICH LOG. CONVERGENCE RATE CHECK BEGINS         8
     EQUILIBRIUM ITERATION AFTER WHICH ALTERNATE RESIDUAL IS USED              9
     MAXIMUM EQUILIBRIUM ITERATIONS ALLOWED                                   16
     EQUILIBRIUM ITERATION COUNT FOR CUT-BACK IN NEXT INCREMENT               10
     MAXIMUM EQUILIB. ITERS IN TWO INCREMENTS FOR TIME INCREMENT INCREASE      4
     MAXIMUM ITERATIONS FOR SEVERE DISCONTINUITIES                            50
     MAXIMUM ATTEMPTS ALLOWED IN AN INCREMENT                                  5
     MAXIMUM DISCON. ITERS IN TWO INCREMENTS FOR TIME INCREMENT INCREASE      50
     MAXIMUM CONTACT AUGMENTATIONS FOR *SURFACE BEHAVIOR,AUGMENTED LAGRANGE   50
     CUT-BACK FACTOR AFTER DIVERGENCE                                 0.2500    
     CUT-BACK FACTOR FOR TOO SLOW CONVERGENCE                         0.5000    
     CUT-BACK FACTOR AFTER TOO MANY EQUILIBRIUM ITERATIONS            0.7500    
     CUT-BACK FACTOR AFTER TOO MANY SEVERE DISCONTINUITY ITERATIONS   0.2500    
     CUT-BACK FACTOR AFTER PROBLEMS IN ELEMENT ASSEMBLY               0.2500    
     INCREASE FACTOR AFTER TWO INCREMENTS THAT CONVERGE QUICKLY        1.500    
     MAX. TIME INCREMENT INCREASE FACTOR ALLOWED                       1.500    
     MAX. TIME INCREMENT INCREASE FACTOR ALLOWED (DYNAMICS)            1.250    
     MAX. TIME INCREMENT INCREASE FACTOR ALLOWED (DIFFUSION)           2.000    
     MINIMUM TIME INCREMENT RATIO FOR EXTRAPOLATION TO OCCUR          0.1000    
     MAX. RATIO OF TIME INCREMENT TO STABILITY LIMIT                   1.000    
     FRACTION OF STABILITY LIMIT FOR NEW TIME INCREMENT               0.9500    
     TIME INCREMENT INCREASE FACTOR BEFORE A TIME POINT                1.000    
     GLOBAL STABILIZATION CONTROL IS NOT USED

          PRINT OF INCREMENT NUMBER, TIME, ETC., EVERY    1  INCREMENTS

     THE MAXIMUM NUMBER OF INCREMENTS IN THIS STEP IS                   10000

          UNSYMMETRIC MATRIX STORAGE AND SOLUTION WILL BE USED

     LINEAR EXTRAPOLATION WILL BE USED

     CHARACTERISTIC ELEMENT LENGTH      54.8    

     DETAILS REGARDING ACTUAL SOLUTION WAVEFRONT REQUESTED

     DETAILED OUTPUT OF DIAGNOSTICS TO DATABASE REQUESTED

     PRINT OF INCREMENT NUMBER, TIME, ETC., TO THE MESSAGE FILE EVERY     1  INCREMENTS

     ELEMENT OPERATIONS WILL BE CARRIED OUT IN PARALLEL USING   4 THREADS ON 1 DOMAIN

     PARALLEL CONTACT TRACKING ENABLED


     COLLECTING MODEL CONSTRAINT INFORMATION FOR OVERCONSTRAINT CHECKS

     COLLECTING STEP CONSTRAINT INFORMATION FOR OVERCONSTRAINT CHECKS


  INCREMENT     1 STARTS. ATTEMPT NUMBER  1, TIME INCREMENT  1.000E-02
 
     INITIAL ELEMENT LOAD BALANCE
            DOMAIN    1     THREAD    NUMBER OF ELEMENTS
                              1            1656
                              2            1727
                              3            1760
                              4            1688
 
	UNSYMMETRIC DIRECT SPARSE SOLVER RUNNING ON
 	1 HOST:        1 MPI RANK  x 4 THREADS
 	NUMBER OF EQUATIONS:     24402
 	NUMBER OF RHS:           1
 	NUMBER OF FLOPS:         5.616e+09

     CHECK POINT   START OF SOLVER    

     CHECK POINT  END OF SOLVER       

       ELAPSED USER TIME (SEC)      =   1.7000    
       ELAPSED SYSTEM TIME (SEC)    =  0.10000    
       ELAPSED TOTAL CPU TIME (SEC) =   1.8000    
       ELAPSED WALLCLOCK TIME (SEC) =          1

               CONVERGENCE CHECKS FOR EQUILIBRIUM ITERATION     1


 AVERAGE FORCE                       1.43       TIME AVG. FORCE        1.43    
 LARGEST RESIDUAL FORCE            -1.447E-08   AT NODE        352   DOF  3
   INSTANCE: PADT                                                                            
 LARGEST INCREMENT OF DISP.        -1.260E-02   AT NODE         44   DOF  3
   INSTANCE: BEAM1                                                                           
 LARGEST CORRECTION TO DISP.       -1.260E-02   AT NODE         44   DOF  3
   INSTANCE: BEAM1                                                                           
 ESTIMATE OF DISP.    CORRECTION   -6.317E-11
 FORCE     EQUILIB. ACCEPTED BASED ON SMALL RESIDUAL AND ESTIMATED CORRECTION

 AVERAGE MOMENT                      0.00       TIME AVG. MOMENT       78.4    
                                                (FROM FORCE     FIELD)
 LARGEST RESIDUAL MOMENT            7.263E-08   AT NODE        352   DOF  5
   INSTANCE: PADT                                                                            
 LARGEST INCREMENT OF ROTATION      8.458E-06   AT NODE         27   DOF  5
   INSTANCE: PADR                                                                            
 LARGEST CORRECTION TO ROTATION     8.458E-06   AT NODE         27   DOF  5
   INSTANCE: PADR                                                                            
          THERE IS ZERO MOMENT    EVERYWHERE

 ITERATION SUMMARY FOR THE INCREMENT:   1 TOTAL ITERATIONS, OF WHICH
   0 ARE SEVERE DISCONTINUITY ITERATIONS AND  1 ARE EQUILIBRIUM ITERATIONS.

 TIME INCREMENT COMPLETED  1.000E-02,  FRACTION OF STEP COMPLETED  5.000E-02
 STEP TIME COMPLETED       1.000E-02,  TOTAL TIME COMPLETED        1.000E-02


  INCREMENT     2 STARTS. ATTEMPT NUMBER  1, TIME INCREMENT  1.000E-02
 
	UNSYMMETRIC DIRECT SPARSE SOLVER RUNNING ON
 	1 HOST:        1 MPI RANK  x 4 THREADS
 	NUMBER OF EQUATIONS:     24402
 	NUMBER OF RHS:           1
 	NUMBER OF FLOPS:         5.616e+09

     CHECK POINT   START OF SOLVER    

     CHECK POINT  END OF SOLVER       

       ELAPSED USER TIME (SEC)      =   1.6000    
       ELAPSED SYSTEM TIME (SEC)    =   0.0000    
       ELAPSED TOTAL CPU TIME (SEC) =   1.6000    
       ELAPSED WALLCLOCK TIME (SEC) =          1

               CONVERGENCE CHECKS FOR EQUILIBRIUM ITERATION     1


 AVERAGE FORCE                       4.33       TIME AVG. FORCE        2.88    
 LARGEST RESIDUAL FORCE             4.640E-10   AT NODE        352   DOF  3
   INSTANCE: PADT                                                                            
 LARGEST INCREMENT OF DISP.        -1.260E-02   AT NODE         64   DOF  3
   INSTANCE: BEAM1                                                                           
 LARGEST CORRECTION TO DISP.       -1.046E-12   AT NODE         64   DOF  3
   INSTANCE: BEAM1                                                                           
          THE FORCE     EQUILIBRIUM RESPONSE WAS LINEAR IN THIS INCREMENT

 AVERAGE MOMENT                      0.00       TIME AVG. MOMENT       78.4    
                                                (FROM FORCE     FIELD)
 LARGEST RESIDUAL MOMENT           -1.560E-08   AT NODE        352   DOF  5
   INSTANCE: PADT                                                                            
 LARGEST INCREMENT OF ROTATION     -8.458E-06   AT NODE         27   DOF  5
   INSTANCE: PADL                                                                            
 LARGEST CORRECTION TO ROTATION    -6.950E-16   AT NODE         27   DOF  5
   INSTANCE: PADL                                                                            
          THERE IS ZERO MOMENT    EVERYWHERE
          TIME INCREMENT MAY NOW INCREASE TO    1.500E-02

 ITERATION SUMMARY FOR THE INCREMENT:   1 TOTAL ITERATIONS, OF WHICH
   0 ARE SEVERE DISCONTINUITY ITERATIONS AND  1 ARE EQUILIBRIUM ITERATIONS.

 TIME INCREMENT COMPLETED  1.000E-02,  FRACTION OF STEP COMPLETED  0.100    
 STEP TIME COMPLETED       2.000E-02,  TOTAL TIME COMPLETED        2.000E-02


  INCREMENT     3 STARTS. ATTEMPT NUMBER  1, TIME INCREMENT  1.500E-02
 
	SYMMETRIC DIRECT SPARSE SOLVER RUNNING ON
 	1 HOST:        1 MPI RANK  x 4 THREADS
 	NUMBER OF EQUATIONS:     24402
 	NUMBER OF RHS:           1
 	NUMBER OF FLOPS:         5.616e+09

     CHECK POINT   START OF SOLVER    

     CHECK POINT  END OF SOLVER       

       ELAPSED USER TIME (SEC)      =  0.10000    
       ELAPSED SYSTEM TIME (SEC)    =   0.0000    
       ELAPSED TOTAL CPU TIME (SEC) =  0.10000    
       ELAPSED WALLCLOCK TIME (SEC) =          0

               CONVERGENCE CHECKS FOR EQUILIBRIUM ITERATION     1


 AVERAGE FORCE                       7.57       TIME AVG. FORCE        4.44    
 LARGEST RESIDUAL FORCE             2.045E-09   AT NODE        352   DOF  3
   INSTANCE: PADT                                                                            
 LARGEST INCREMENT OF DISP.        -1.890E-02   AT NODE         44   DOF  3
   INSTANCE: BEAM1                                                                           
 LARGEST CORRECTION TO DISP.        7.842E-13   AT NODE         64   DOF  3
   INSTANCE: BEAM1                                                                           
          THE FORCE     EQUILIBRIUM RESPONSE WAS LINEAR IN THIS INCREMENT

 AVERAGE MOMENT                      0.00       TIME AVG. MOMENT       158.    
                                                (FROM FORCE     FIELD)
 LARGEST RESIDUAL MOMENT           -3.892E-08   AT NODE        352   DOF  4
   INSTANCE: PADT                                                                            
 LARGEST INCREMENT OF ROTATION      1.269E-05   AT NODE         27   DOF  5
   INSTANCE: PADR                                                                            
 LARGEST CORRECTION TO ROTATION     5.212E-16   AT NODE        352   DOF  5
   INSTANCE: PADL                                                                            
          THERE IS ZERO MOMENT    EVERYWHERE
          TIME INCREMENT MAY NOW INCREASE TO    2.250E-02

 ITERATION SUMMARY FOR THE INCREMENT:   1 TOTAL ITERATIONS, OF WHICH
   0 ARE SEVERE DISCONTINUITY ITERATIONS AND  1 ARE EQUILIBRIUM ITERATIONS.

 TIME INCREMENT COMPLETED  1.500E-02,  FRACTION OF STEP COMPLETED  0.175    
 STEP TIME COMPLETED       3.500E-02,  TOTAL TIME COMPLETED        3.500E-02


  INCREMENT     4 STARTS. ATTEMPT NUMBER  1, TIME INCREMENT  2.250E-02
 
	SYMMETRIC DIRECT SPARSE SOLVER RUNNING ON
 	1 HOST:        1 MPI RANK  x 4 THREADS
 	NUMBER OF EQUATIONS:     24402
 	NUMBER OF RHS:           1
 	NUMBER OF FLOPS:         5.616e+09

     CHECK POINT   START OF SOLVER    

     CHECK POINT  END OF SOLVER       

       ELAPSED USER TIME (SEC)      =  0.20000    
       ELAPSED SYSTEM TIME (SEC)    =   0.0000    
       ELAPSED TOTAL CPU TIME (SEC) =  0.20000    
       ELAPSED WALLCLOCK TIME (SEC) =          0

               CONVERGENCE CHECKS FOR EQUILIBRIUM ITERATION     1


 AVERAGE FORCE                       12.4       TIME AVG. FORCE        6.44    
 LARGEST RESIDUAL FORCE            -1.227E-09   AT NODE        352   DOF  3
   INSTANCE: PADT                                                                            
 LARGEST INCREMENT OF DISP.        -2.836E-02   AT NODE         44   DOF  3
   INSTANCE: BEAM1                                                                           
 LARGEST CORRECTION TO DISP.        8.282E-17   AT NODE        299   DOF  3
   INSTANCE: PADT                                                                            
          THE FORCE     EQUILIBRIUM RESPONSE WAS LINEAR IN THIS INCREMENT

 AVERAGE MOMENT                      0.00       TIME AVG. MOMENT       243.    
                                                (FROM FORCE     FIELD)
 LARGEST RESIDUAL MOMENT            4.168E-08   AT NODE        352   DOF  4
   INSTANCE: PADT                                                                            
 LARGEST INCREMENT OF ROTATION      1.903E-05   AT NODE         27   DOF  5
   INSTANCE: PADR                                                                            
 LARGEST CORRECTION TO ROTATION     4.110E-20   AT NODE        352   DOF  5
   INSTANCE: PADL                                                                            
          THERE IS ZERO MOMENT    EVERYWHERE
          TIME INCREMENT MAY NOW INCREASE TO    3.375E-02

 ITERATION SUMMARY FOR THE INCREMENT:   1 TOTAL ITERATIONS, OF WHICH
   0 ARE SEVERE DISCONTINUITY ITERATIONS AND  1 ARE EQUILIBRIUM ITERATIONS.

 TIME INCREMENT COMPLETED  2.250E-02,  FRACTION OF STEP COMPLETED  0.287    
 STEP TIME COMPLETED       5.750E-02,  TOTAL TIME COMPLETED        5.750E-02


  INCREMENT     5 STARTS. ATTEMPT NUMBER  1, TIME INCREMENT  3.375E-02
 
	SYMMETRIC DIRECT SPARSE SOLVER RUNNING ON
 	1 HOST:        1 MPI RANK  x 4 THREADS
 	NUMBER OF EQUATIONS:     24402
 	NUMBER OF RHS:           1
 	NUMBER OF FLOPS:         5.616e+09

     CHECK POINT   START OF SOLVER    

     CHECK POINT  END OF SOLVER       

       ELAPSED USER TIME (SEC)      =  0.20000    
       ELAPSED SYSTEM TIME (SEC)    =   0.0000    
       ELAPSED TOTAL CPU TIME (SEC) =  0.20000    
       ELAPSED WALLCLOCK TIME (SEC) =          0

               CONVERGENCE CHECKS FOR EQUILIBRIUM ITERATION     1


 AVERAGE FORCE                       19.7       TIME AVG. FORCE        9.10    
 LARGEST RESIDUAL FORCE            -2.509E-09   AT NODE        352   DOF  3
   INSTANCE: PADT                                                                            
 LARGEST INCREMENT OF DISP.        -4.253E-02   AT NODE         44   DOF  3
   INSTANCE: BEAM1                                                                           
 LARGEST CORRECTION TO DISP.        1.224E-16   AT NODE        125   DOF  3
   INSTANCE: BEAM1                                                                           
          THE FORCE     EQUILIBRIUM RESPONSE WAS LINEAR IN THIS INCREMENT

 AVERAGE MOMENT                      0.00       TIME AVG. MOMENT       353.    
                                                (FROM FORCE     FIELD)
 LARGEST RESIDUAL MOMENT           -3.700E-08   AT NODE        352   DOF  5
   INSTANCE: PADT                                                                            
 LARGEST INCREMENT OF ROTATION      2.854E-05   AT NODE         27   DOF  5
   INSTANCE: PADR                                                                            
 LARGEST CORRECTION TO ROTATION     6.776E-20   AT NODE         27   DOF  5
   INSTANCE: PADL                                                                            
          THERE IS ZERO MOMENT    EVERYWHERE
          TIME INCREMENT MAY NOW INCREASE TO    5.063E-02

 ITERATION SUMMARY FOR THE INCREMENT:   1 TOTAL ITERATIONS, OF WHICH
   0 ARE SEVERE DISCONTINUITY ITERATIONS AND  1 ARE EQUILIBRIUM ITERATIONS.

 TIME INCREMENT COMPLETED  3.375E-02,  FRACTION OF STEP COMPLETED  0.456    
 STEP TIME COMPLETED       9.125E-02,  TOTAL TIME COMPLETED        9.125E-02


  INCREMENT     6 STARTS. ATTEMPT NUMBER  1, TIME INCREMENT  5.063E-02
 
	SYMMETRIC DIRECT SPARSE SOLVER RUNNING ON
 	1 HOST:        1 MPI RANK  x 4 THREADS
 	NUMBER OF EQUATIONS:     24402
 	NUMBER OF RHS:           1
 	NUMBER OF FLOPS:         5.616e+09

     CHECK POINT   START OF SOLVER    

     CHECK POINT  END OF SOLVER       

       ELAPSED USER TIME (SEC)      =  0.10000    
       ELAPSED SYSTEM TIME (SEC)    =   0.0000    
       ELAPSED TOTAL CPU TIME (SEC) =  0.10000    
       ELAPSED WALLCLOCK TIME (SEC) =          0

               CONVERGENCE CHECKS FOR EQUILIBRIUM ITERATION     1


 AVERAGE FORCE                       30.7       TIME AVG. FORCE        12.7    
 LARGEST RESIDUAL FORCE             2.094E-09   AT NODE        352   DOF  3
   INSTANCE: PADT                                                                            
 LARGEST INCREMENT OF DISP.        -6.380E-02   AT NODE         44   DOF  3
   INSTANCE: BEAM1                                                                           
 LARGEST CORRECTION TO DISP.        8.961E-17   AT NODE        246   DOF  3
   INSTANCE: BEAM1                                                                           
          THE FORCE     EQUILIBRIUM RESPONSE WAS LINEAR IN THIS INCREMENT

 AVERAGE MOMENT                      0.00       TIME AVG. MOMENT       498.    
                                                (FROM FORCE     FIELD)
 LARGEST RESIDUAL MOMENT            5.438E-08   AT NODE        352   DOF  5
   INSTANCE: PADT                                                                            
 LARGEST INCREMENT OF ROTATION      4.282E-05   AT NODE         27   DOF  5
   INSTANCE: PADR                                                                            
 LARGEST CORRECTION TO ROTATION    -3.388E-20   AT NODE         27   DOF  5
   INSTANCE: PADR                                                                            
          THERE IS ZERO MOMENT    EVERYWHERE
          TIME INCREMENT MAY NOW INCREASE TO    7.594E-02

 ITERATION SUMMARY FOR THE INCREMENT:   1 TOTAL ITERATIONS, OF WHICH
   0 ARE SEVERE DISCONTINUITY ITERATIONS AND  1 ARE EQUILIBRIUM ITERATIONS.

 TIME INCREMENT COMPLETED  5.063E-02,  FRACTION OF STEP COMPLETED  0.709    
 STEP TIME COMPLETED       0.142    ,  TOTAL TIME COMPLETED        0.142    


  INCREMENT     7 STARTS. ATTEMPT NUMBER  1, TIME INCREMENT  5.813E-02
 
	SYMMETRIC DIRECT SPARSE SOLVER RUNNING ON
 	1 HOST:        1 MPI RANK  x 4 THREADS
 	NUMBER OF EQUATIONS:     24402
 	NUMBER OF RHS:           1
 	NUMBER OF FLOPS:         5.616e+09

     CHECK POINT   START OF SOLVER    

     CHECK POINT  END OF SOLVER       

       ELAPSED USER TIME (SEC)      =  0.10000    
       ELAPSED SYSTEM TIME (SEC)    =  0.10000    
       ELAPSED TOTAL CPU TIME (SEC) =  0.20000    
       ELAPSED WALLCLOCK TIME (SEC) =          0

               CONVERGENCE CHECKS FOR EQUILIBRIUM ITERATION     1


 AVERAGE FORCE                       43.2       TIME AVG. FORCE        17.1    
 LARGEST RESIDUAL FORCE             8.789E-10   AT NODE        352   DOF  1
   INSTANCE: PADT                                                                            
 LARGEST INCREMENT OF DISP.        -7.325E-02   AT NODE         64   DOF  3
   INSTANCE: BEAM1                                                                           
 LARGEST CORRECTION TO DISP.       -3.187E-16   AT NODE       1185   DOF  3
   INSTANCE: BEAM1                                                                           
          THE FORCE     EQUILIBRIUM RESPONSE WAS LINEAR IN THIS INCREMENT

 AVERAGE MOMENT                      0.00       TIME AVG. MOMENT       695.    
                                                (FROM FORCE     FIELD)
 LARGEST RESIDUAL MOMENT            7.002E-08   AT NODE        352   DOF  6
   INSTANCE: PADT                                                                            
 LARGEST INCREMENT OF ROTATION     -4.916E-05   AT NODE         27   DOF  5
   INSTANCE: PADL                                                                            
 LARGEST CORRECTION TO ROTATION    -2.035E-19   AT NODE        352   DOF  5
   INSTANCE: PADL                                                                            
          THERE IS ZERO MOMENT    EVERYWHERE

 ITERATION SUMMARY FOR THE INCREMENT:   1 TOTAL ITERATIONS, OF WHICH
   0 ARE SEVERE DISCONTINUITY ITERATIONS AND  1 ARE EQUILIBRIUM ITERATIONS.

 TIME INCREMENT COMPLETED  5.813E-02,  FRACTION OF STEP COMPLETED   1.00    
 STEP TIME COMPLETED       0.200    ,  TOTAL TIME COMPLETED        0.200    
1

   Abaqus 2022                                  Date 30-3ÔÂ-2025   Time 02:11:00
   For use by Supplied by Team-SolidSQUAD under license from Dassault Systemes or its subsidiary.

                                                                                 
                                                                                 
 STEP    2     INCREMENT     1     STEP TIME    0.00    


                        S T E P       2     S T A T I C   A N A L Y S I S


                                                                                          

     AUTOMATIC TIME CONTROL WITH -
          A SUGGESTED INITIAL TIME INCREMENT OF                1.000E-02
          AND A TOTAL TIME PERIOD OF                            1.00    
          THE MINIMUM TIME INCREMENT ALLOWED IS                1.000E-06
          THE MAXIMUM TIME INCREMENT ALLOWED IS                 1.00    

     LINEAR EQUATION SOLVER TYPE         DIRECT SPARSE

 CONVERGENCE TOLERANCE PARAMETERS FOR FORCE    
     CRITERION FOR RESIDUAL FORCE     FOR A NONLINEAR PROBLEM          5.000E-03
     CRITERION FOR DISP.    CORRECTION IN A NONLINEAR PROBLEM          1.000E-02
     INIT. VALUE OF TIME AVG. FORCE     IS TIME AVG. FORCE     IN PREVIOUS STEP
     AVERAGE FORCE     IS TIME AVERAGE FORCE    
     ALTERNATE CRIT. FOR RESIDUAL FORCE     FOR A NONLINEAR PROBLEM    2.000E-02
     CRITERION FOR ZERO FORCE     RELATIVE TO TIME AVRG. FORCE         1.000E-05
     CRITERION FOR RESIDUAL FORCE     WHEN THERE IS ZERO FLUX          1.000E-05
     CRITERION FOR DISP.    CORRECTION WHEN THERE IS ZERO FLUX         1.000E-03
     CRITERION FOR RESIDUAL FORCE     FOR A LINEAR INCREMENT           1.000E-08
     FIELD CONVERSION RATIO                                             1.00    
     CRITERION FOR ZERO FORCE     REL. TO TIME AVRG. MAX. FORCE        1.000E-05
     CRITERION FOR ZERO DISP.    RELATIVE TO CHARACTERISTIC LENGTH     1.000E-08

 CONVERGENCE TOLERANCE PARAMETERS FOR MOMENT   
     CRITERION FOR RESIDUAL MOMENT    FOR A NONLINEAR PROBLEM          5.000E-03
     CRITERION FOR ROTATION CORRECTION IN A NONLINEAR PROBLEM          1.000E-02
     INIT. VALUE OF TIME AVG. MOMENT    IS TIME AVG. MOMENT    IN PREVIOUS STEP
     AVERAGE MOMENT    IS TIME AVERAGE MOMENT   
     ALTERNATE CRIT. FOR RESIDUAL MOMENT    FOR A NONLINEAR PROBLEM    2.000E-02
     CRITERION FOR ZERO MOMENT    RELATIVE TO TIME AVRG. MOMENT        1.000E-05
     CRITERION FOR RESIDUAL MOMENT    WHEN THERE IS ZERO FLUX          1.000E-05
     CRITERION FOR ROTATION CORRECTION WHEN THERE IS ZERO FLUX         1.000E-03
     CRITERION FOR RESIDUAL MOMENT    FOR A LINEAR INCREMENT           1.000E-08
     FIELD CONVERSION RATIO                                             1.00    
     CRITERION FOR ZERO MOMENT    REL. TO TIME AVRG. MAX. MOMENT       1.000E-05

     VOLUMETRIC STRAIN COMPATIBILITY TOLERANCE FOR HYBRID SOLIDS       1.000E-05
     AXIAL STRAIN COMPATIBILITY TOLERANCE FOR HYBRID BEAMS             1.000E-05
     TRANS. SHEAR STRAIN COMPATIBILITY TOLERANCE FOR HYBRID BEAMS      1.000E-05
     SOFT CONTACT CONSTRAINT COMPATIBILITY TOLERANCE FOR P>P0          5.000E-03
     SOFT CONTACT CONSTRAINT COMPATIBILITY TOLERANCE FOR P=0.0         0.100    
     CONTACT FORCE ERROR TOLERANCE FOR CONVERT SDI=YES                 1.00    
     DISPLACEMENT COMPATIBILITY TOLERANCE FOR DCOUP ELEMENTS           1.000E-05
     ROTATION COMPATIBILITY TOLERANCE FOR DCOUP ELEMENTS               1.000E-05

 EQUILIBRIUM WILL BE CHECKED FOR SEVERE DISCONTINUITY ITERATIONS

 TIME INCREMENTATION CONTROL PARAMETERS:
     FIRST EQUILIBRIUM ITERATION FOR CONSECUTIVE DIVERGENCE CHECK              4
     EQUILIBRIUM ITERATION AT WHICH LOG. CONVERGENCE RATE CHECK BEGINS         8
     EQUILIBRIUM ITERATION AFTER WHICH ALTERNATE RESIDUAL IS USED              9
     MAXIMUM EQUILIBRIUM ITERATIONS ALLOWED                                   16
     EQUILIBRIUM ITERATION COUNT FOR CUT-BACK IN NEXT INCREMENT               10
     MAXIMUM EQUILIB. ITERS IN TWO INCREMENTS FOR TIME INCREMENT INCREASE      4
     MAXIMUM ITERATIONS FOR SEVERE DISCONTINUITIES                            50
     MAXIMUM ATTEMPTS ALLOWED IN AN INCREMENT                                  5
     MAXIMUM DISCON. ITERS IN TWO INCREMENTS FOR TIME INCREMENT INCREASE      50
     MAXIMUM CONTACT AUGMENTATIONS FOR *SURFACE BEHAVIOR,AUGMENTED LAGRANGE   50
     CUT-BACK FACTOR AFTER DIVERGENCE                                 0.2500    
     CUT-BACK FACTOR FOR TOO SLOW CONVERGENCE                         0.5000    
     CUT-BACK FACTOR AFTER TOO MANY EQUILIBRIUM ITERATIONS            0.7500    
     CUT-BACK FACTOR AFTER TOO MANY SEVERE DISCONTINUITY ITERATIONS   0.2500    
     CUT-BACK FACTOR AFTER PROBLEMS IN ELEMENT ASSEMBLY               0.2500    
     INCREASE FACTOR AFTER TWO INCREMENTS THAT CONVERGE QUICKLY        1.500    
     MAX. TIME INCREMENT INCREASE FACTOR ALLOWED                       1.500    
     MAX. TIME INCREMENT INCREASE FACTOR ALLOWED (DYNAMICS)            1.250    
     MAX. TIME INCREMENT INCREASE FACTOR ALLOWED (DIFFUSION)           2.000    
     MINIMUM TIME INCREMENT RATIO FOR EXTRAPOLATION TO OCCUR          0.1000    
     MAX. RATIO OF TIME INCREMENT TO STABILITY LIMIT                   1.000    
     FRACTION OF STABILITY LIMIT FOR NEW TIME INCREMENT               0.9500    
     TIME INCREMENT INCREASE FACTOR BEFORE A TIME POINT                1.000    
     GLOBAL STABILIZATION CONTROL IS NOT USED

          PRINT OF INCREMENT NUMBER, TIME, ETC., EVERY    1  INCREMENTS

     THE MAXIMUM NUMBER OF INCREMENTS IN THIS STEP IS                   10000

          UNSYMMETRIC MATRIX STORAGE AND SOLUTION WILL BE USED

     LINEAR EXTRAPOLATION WILL BE USED

     CHARACTERISTIC ELEMENT LENGTH      54.8    

     DETAILS REGARDING ACTUAL SOLUTION WAVEFRONT REQUESTED

     DETAILED OUTPUT OF DIAGNOSTICS TO DATABASE REQUESTED

     PRINT OF INCREMENT NUMBER, TIME, ETC., TO THE MESSAGE FILE EVERY     1  INCREMENTS

     ELEMENT OPERATIONS WILL BE CARRIED OUT IN PARALLEL USING   4 THREADS ON 1 DOMAIN

     COLLECTING STEP CONSTRAINT INFORMATION FOR OVERCONSTRAINT CHECKS


  INCREMENT     1 STARTS. ATTEMPT NUMBER  1, TIME INCREMENT  1.000E-02
 
     INITIAL ELEMENT LOAD BALANCE
            DOMAIN    1     THREAD    NUMBER OF ELEMENTS
                              1            1719
                              2            1680
                              3            1768
                              4            1664
 
	UNSYMMETRIC DIRECT SPARSE SOLVER RUNNING ON
 	1 HOST:        1 MPI RANK  x 4 THREADS
 	NUMBER OF EQUATIONS:     24402
 	NUMBER OF RHS:           1
 	NUMBER OF FLOPS:         5.616e+09

     CHECK POINT   START OF SOLVER    

     CHECK POINT  END OF SOLVER       

       ELAPSED USER TIME (SEC)      =   1.4000    
       ELAPSED SYSTEM TIME (SEC)    =   0.0000    
       ELAPSED TOTAL CPU TIME (SEC) =   1.4000    
       ELAPSED WALLCLOCK TIME (SEC) =          1

               CONVERGENCE CHECKS FOR EQUILIBRIUM ITERATION     1


 AVERAGE FORCE                       49.9       TIME AVG. FORCE        49.9    
 LARGEST RESIDUAL FORCE            -4.855E-08   AT NODE        352   DOF  3
   INSTANCE: PADT                                                                            
 LARGEST INCREMENT OF DISP.        -4.065E-02   AT NODE         44   DOF  3
   INSTANCE: BEAM1                                                                           
 LARGEST CORRECTION TO DISP.       -4.065E-02   AT NODE         44   DOF  3
   INSTANCE: BEAM1                                                                           
          THE FORCE     EQUILIBRIUM RESPONSE WAS LINEAR IN THIS INCREMENT

 AVERAGE MOMENT                      0.00       TIME AVG. MOMENT      2.733E+03
                                                (FROM FORCE     FIELD)
 LARGEST RESIDUAL MOMENT            2.132E-07   AT NODE        352   DOF  5
   INSTANCE: PADT                                                                            
 LARGEST INCREMENT OF ROTATION      2.530E-05   AT NODE         27   DOF  5
   INSTANCE: PADR                                                                            
 LARGEST CORRECTION TO ROTATION     2.530E-05   AT NODE         27   DOF  5
   INSTANCE: PADR                                                                            
          THERE IS ZERO MOMENT    EVERYWHERE

 ITERATION SUMMARY FOR THE INCREMENT:   1 TOTAL ITERATIONS, OF WHICH
   0 ARE SEVERE DISCONTINUITY ITERATIONS AND  1 ARE EQUILIBRIUM ITERATIONS.

 TIME INCREMENT COMPLETED  1.000E-02,  FRACTION OF STEP COMPLETED  1.000E-02
 STEP TIME COMPLETED       1.000E-02,  TOTAL TIME COMPLETED        0.210    


  INCREMENT     2 STARTS. ATTEMPT NUMBER  1, TIME INCREMENT  1.000E-02
 
	SYMMETRIC DIRECT SPARSE SOLVER RUNNING ON
 	1 HOST:        1 MPI RANK  x 4 THREADS
 	NUMBER OF EQUATIONS:     24402
 	NUMBER OF RHS:           1
 	NUMBER OF FLOPS:         5.616e+09

     CHECK POINT   START OF SOLVER    

     CHECK POINT  END OF SOLVER       

       ELAPSED USER TIME (SEC)      =  0.10000    
       ELAPSED SYSTEM TIME (SEC)    =   0.0000    
       ELAPSED TOTAL CPU TIME (SEC) =  0.10000    
       ELAPSED WALLCLOCK TIME (SEC) =          0

               CONVERGENCE CHECKS FOR EQUILIBRIUM ITERATION     1


 AVERAGE FORCE                       56.9       TIME AVG. FORCE        53.4    
 LARGEST RESIDUAL FORCE             8.844E-10   AT NODE        352   DOF  3
   INSTANCE: PADT                                                                            
 LARGEST INCREMENT OF DISP.        -4.065E-02   AT NODE         64   DOF  3
   INSTANCE: BEAM1                                                                           
 LARGEST CORRECTION TO DISP.       -3.345E-12   AT NODE         64   DOF  3
   INSTANCE: BEAM1                                                                           
          THE FORCE     EQUILIBRIUM RESPONSE WAS LINEAR IN THIS INCREMENT

 AVERAGE MOMENT                      0.00       TIME AVG. MOMENT      2.733E+03
                                                (FROM FORCE     FIELD)
 LARGEST RESIDUAL MOMENT           -2.142E-08   AT NODE        352   DOF  4
   INSTANCE: PADT                                                                            
 LARGEST INCREMENT OF ROTATION     -2.530E-05   AT NODE         27   DOF  5
   INSTANCE: PADL                                                                            
 LARGEST CORRECTION TO ROTATION    -2.215E-15   AT NODE        352   DOF  5
   INSTANCE: PADL                                                                            
          THERE IS ZERO MOMENT    EVERYWHERE
          TIME INCREMENT MAY NOW INCREASE TO    1.500E-02

 ITERATION SUMMARY FOR THE INCREMENT:   1 TOTAL ITERATIONS, OF WHICH
   0 ARE SEVERE DISCONTINUITY ITERATIONS AND  1 ARE EQUILIBRIUM ITERATIONS.

 TIME INCREMENT COMPLETED  1.000E-02,  FRACTION OF STEP COMPLETED  2.000E-02
 STEP TIME COMPLETED       2.000E-02,  TOTAL TIME COMPLETED        0.220    


  INCREMENT     3 STARTS. ATTEMPT NUMBER  1, TIME INCREMENT  1.500E-02
 
	SYMMETRIC DIRECT SPARSE SOLVER RUNNING ON
 	1 HOST:        1 MPI RANK  x 4 THREADS
 	NUMBER OF EQUATIONS:     24402
 	NUMBER OF RHS:           1
 	NUMBER OF FLOPS:         5.616e+09

     CHECK POINT   START OF SOLVER    

     CHECK POINT  END OF SOLVER       

       ELAPSED USER TIME (SEC)      =  0.20000    
       ELAPSED SYSTEM TIME (SEC)    =   0.0000    
       ELAPSED TOTAL CPU TIME (SEC) =  0.20000    
       ELAPSED WALLCLOCK TIME (SEC) =          1

               CONVERGENCE CHECKS FOR EQUILIBRIUM ITERATION     1


 AVERAGE FORCE                       67.1       TIME AVG. FORCE        58.0    
 LARGEST RESIDUAL FORCE            -2.462E-09   AT NODE        352   DOF  3
   INSTANCE: PADT                                                                            
 LARGEST INCREMENT OF DISP.        -6.097E-02   AT NODE         64   DOF  3
   INSTANCE: BEAM1                                                                           
 LARGEST CORRECTION TO DISP.        2.509E-12   AT NODE         64   DOF  3
   INSTANCE: BEAM1                                                                           
          THE FORCE     EQUILIBRIUM RESPONSE WAS LINEAR IN THIS INCREMENT

 AVERAGE MOMENT                      0.00       TIME AVG. MOMENT      2.923E+03
                                                (FROM FORCE     FIELD)
 LARGEST RESIDUAL MOMENT           -5.226E-08   AT NODE        352   DOF  4
   INSTANCE: PADT                                                                            
 LARGEST INCREMENT OF ROTATION     -3.794E-05   AT NODE         27   DOF  5
   INSTANCE: PADL                                                                            
 LARGEST CORRECTION TO ROTATION     1.662E-15   AT NODE        352   DOF  5
   INSTANCE: PADL                                                                            
          THERE IS ZERO MOMENT    EVERYWHERE
          TIME INCREMENT MAY NOW INCREASE TO    2.250E-02

 ITERATION SUMMARY FOR THE INCREMENT:   1 TOTAL ITERATIONS, OF WHICH
   0 ARE SEVERE DISCONTINUITY ITERATIONS AND  1 ARE EQUILIBRIUM ITERATIONS.

 TIME INCREMENT COMPLETED  1.500E-02,  FRACTION OF STEP COMPLETED  3.500E-02
 STEP TIME COMPLETED       3.500E-02,  TOTAL TIME COMPLETED        0.235    


  INCREMENT     4 STARTS. ATTEMPT NUMBER  1, TIME INCREMENT  2.250E-02
 
	SYMMETRIC DIRECT SPARSE SOLVER RUNNING ON
 	1 HOST:        1 MPI RANK  x 4 THREADS
 	NUMBER OF EQUATIONS:     24402
 	NUMBER OF RHS:           1
 	NUMBER OF FLOPS:         5.616e+09

     CHECK POINT   START OF SOLVER    

     CHECK POINT  END OF SOLVER       

       ELAPSED USER TIME (SEC)      =   0.0000    
       ELAPSED SYSTEM TIME (SEC)    =   0.0000    
       ELAPSED TOTAL CPU TIME (SEC) =   0.0000    
       ELAPSED WALLCLOCK TIME (SEC) =          0

               CONVERGENCE CHECKS FOR EQUILIBRIUM ITERATION     1


 AVERAGE FORCE                       82.4       TIME AVG. FORCE        64.1    
 LARGEST RESIDUAL FORCE            -4.383E-09   AT NODE        352   DOF  3
   INSTANCE: PADT                                                                            
 LARGEST INCREMENT OF DISP.        -9.145E-02   AT NODE         64   DOF  3
   INSTANCE: BEAM1                                                                           
 LARGEST CORRECTION TO DISP.       -1.255E-16   AT NODE         62   DOF  3
   INSTANCE: BEAM1                                                                           
          THE FORCE     EQUILIBRIUM RESPONSE WAS LINEAR IN THIS INCREMENT

 AVERAGE MOMENT                      0.00       TIME AVG. MOMENT      3.174E+03
                                                (FROM FORCE     FIELD)
 LARGEST RESIDUAL MOMENT            1.577E-07   AT NODE        352   DOF  5
   INSTANCE: PADT                                                                            
 LARGEST INCREMENT OF ROTATION      5.691E-05   AT NODE         27   DOF  5
   INSTANCE: PADR                                                                            
 LARGEST CORRECTION TO ROTATION     8.573E-20   AT NODE         27   DOF  5
   INSTANCE: PADT                                                                            
          THERE IS ZERO MOMENT    EVERYWHERE
          TIME INCREMENT MAY NOW INCREASE TO    3.375E-02

 ITERATION SUMMARY FOR THE INCREMENT:   1 TOTAL ITERATIONS, OF WHICH
   0 ARE SEVERE DISCONTINUITY ITERATIONS AND  1 ARE EQUILIBRIUM ITERATIONS.

 TIME INCREMENT COMPLETED  2.250E-02,  FRACTION OF STEP COMPLETED  5.750E-02
 STEP TIME COMPLETED       5.750E-02,  TOTAL TIME COMPLETED        0.258    


  INCREMENT     5 STARTS. ATTEMPT NUMBER  1, TIME INCREMENT  3.375E-02
 
	SYMMETRIC DIRECT SPARSE SOLVER RUNNING ON
 	1 HOST:        1 MPI RANK  x 4 THREADS
 	NUMBER OF EQUATIONS:     24402
 	NUMBER OF RHS:           1
 	NUMBER OF FLOPS:         5.616e+09

     CHECK POINT   START OF SOLVER    

     CHECK POINT  END OF SOLVER       

       ELAPSED USER TIME (SEC)      =  0.10000    
       ELAPSED SYSTEM TIME (SEC)    =   0.0000    
       ELAPSED TOTAL CPU TIME (SEC) =  0.10000    
       ELAPSED WALLCLOCK TIME (SEC) =          0

               CONVERGENCE CHECKS FOR EQUILIBRIUM ITERATION     1


 AVERAGE FORCE                       105.       TIME AVG. FORCE        72.3    
 LARGEST RESIDUAL FORCE            -1.582E-08   AT NODE        352   DOF  3
   INSTANCE: PADT                                                                            
 LARGEST INCREMENT OF DISP.        -0.137       AT NODE         64   DOF  3
   INSTANCE: BEAM1                                                                           
 LARGEST CORRECTION TO DISP.       -9.370E-16   AT NODE       1182   DOF  3
   INSTANCE: BEAM1                                                                           
          THE FORCE     EQUILIBRIUM RESPONSE WAS LINEAR IN THIS INCREMENT

 AVERAGE MOMENT                      0.00       TIME AVG. MOMENT      3.509E+03
                                                (FROM FORCE     FIELD)
 LARGEST RESIDUAL MOMENT            4.821E-07   AT NODE        352   DOF  4
   INSTANCE: PADT                                                                            
 LARGEST INCREMENT OF ROTATION     -8.537E-05   AT NODE         27   DOF  5
   INSTANCE: PADL                                                                            
 LARGEST CORRECTION TO ROTATION    -6.420E-19   AT NODE        352   DOF  5
   INSTANCE: PADL                                                                            
          THERE IS ZERO MOMENT    EVERYWHERE
          TIME INCREMENT MAY NOW INCREASE TO    5.063E-02

 ITERATION SUMMARY FOR THE INCREMENT:   1 TOTAL ITERATIONS, OF WHICH
   0 ARE SEVERE DISCONTINUITY ITERATIONS AND  1 ARE EQUILIBRIUM ITERATIONS.

 TIME INCREMENT COMPLETED  3.375E-02,  FRACTION OF STEP COMPLETED  9.125E-02
 STEP TIME COMPLETED       9.125E-02,  TOTAL TIME COMPLETED        0.291    


  INCREMENT     6 STARTS. ATTEMPT NUMBER  1, TIME INCREMENT  5.063E-02
 
	SYMMETRIC DIRECT SPARSE SOLVER RUNNING ON
 	1 HOST:        1 MPI RANK  x 4 THREADS
 	NUMBER OF EQUATIONS:     24402
 	NUMBER OF RHS:           1
 	NUMBER OF FLOPS:         5.616e+09

     CHECK POINT   START OF SOLVER    

     CHECK POINT  END OF SOLVER       

       ELAPSED USER TIME (SEC)      =  0.20000    
       ELAPSED SYSTEM TIME (SEC)    =   0.0000    
       ELAPSED TOTAL CPU TIME (SEC) =  0.20000    
       ELAPSED WALLCLOCK TIME (SEC) =          0

               CONVERGENCE CHECKS FOR EQUILIBRIUM ITERATION     1


 AVERAGE FORCE                       140.       TIME AVG. FORCE        83.6    
 LARGEST RESIDUAL FORCE              65.1       AT NODE       3124   DOF  1
   INSTANCE: BEAM1                                                                           
 LARGEST INCREMENT OF DISP.        -0.220       AT NODE         44   DOF  3
   INSTANCE: BEAM1                                                                           
 LARGEST CORRECTION TO DISP.       -1.426E-02   AT NODE         44   DOF  3
   INSTANCE: BEAM1                                                                           
          FORCE     EQUILIBRIUM NOT ACHIEVED WITHIN TOLERANCE.

 AVERAGE MOMENT                      0.00       TIME AVG. MOMENT      3.962E+03
                                                (FROM FORCE     FIELD)
 LARGEST RESIDUAL MOMENT           -5.011E-07   AT NODE        352   DOF  5
   INSTANCE: PADT                                                                            
 LARGEST INCREMENT OF ROTATION      1.347E-04   AT NODE         27   DOF  5
   INSTANCE: PADR                                                                            
 LARGEST CORRECTION TO ROTATION     6.631E-06   AT NODE         27   DOF  5
   INSTANCE: PADR                                                                            
          THERE IS ZERO MOMENT    EVERYWHERE
 
	UNSYMMETRIC DIRECT SPARSE SOLVER RUNNING ON
 	1 HOST:        1 MPI RANK  x 4 THREADS
 	NUMBER OF EQUATIONS:     24402
 	NUMBER OF RHS:           1
 	NUMBER OF FLOPS:         5.616e+09

     CHECK POINT   START OF SOLVER    

     CHECK POINT  END OF SOLVER       

       ELAPSED USER TIME (SEC)      =   1.3000    
       ELAPSED SYSTEM TIME (SEC)    =   0.0000    
       ELAPSED TOTAL CPU TIME (SEC) =   1.3000    
       ELAPSED WALLCLOCK TIME (SEC) =          0

               CONVERGENCE CHECKS FOR EQUILIBRIUM ITERATION     2


 AVERAGE FORCE                       141.       TIME AVG. FORCE        83.7    
 LARGEST RESIDUAL FORCE             -372.       AT NODE       3038   DOF  1
   INSTANCE: BEAM1                                                                           
 LARGEST INCREMENT OF DISP.        -0.228       AT NODE         44   DOF  3
   INSTANCE: BEAM1                                                                           
 LARGEST CORRECTION TO DISP.       -8.149E-03   AT NODE         68   DOF  3
   INSTANCE: BEAM1                                                                           
          FORCE     EQUILIBRIUM NOT ACHIEVED WITHIN TOLERANCE.

 AVERAGE MOMENT                      0.00       TIME AVG. MOMENT      3.962E+03
                                                (FROM FORCE     FIELD)
 LARGEST RESIDUAL MOMENT            3.075E-07   AT NODE        352   DOF  5
   INSTANCE: PADT                                                                            
 LARGEST INCREMENT OF ROTATION      1.381E-04   AT NODE         27   DOF  5
   INSTANCE: PADR                                                                            
 LARGEST CORRECTION TO ROTATION    -3.437E-06   AT NODE         27   DOF  5
   INSTANCE: PADL                                                                            
          THERE IS ZERO MOMENT    EVERYWHERE
 
	UNSYMMETRIC DIRECT SPARSE SOLVER RUNNING ON
 	1 HOST:        1 MPI RANK  x 4 THREADS
 	NUMBER OF EQUATIONS:     24402
 	NUMBER OF RHS:           1
 	NUMBER OF FLOPS:         5.616e+09

     CHECK POINT   START OF SOLVER    

     CHECK POINT  END OF SOLVER       

       ELAPSED USER TIME (SEC)      =   1.5000    
       ELAPSED SYSTEM TIME (SEC)    =  0.10000    
       ELAPSED TOTAL CPU TIME (SEC) =   1.6000    
       ELAPSED WALLCLOCK TIME (SEC) =          1

               CONVERGENCE CHECKS FOR EQUILIBRIUM ITERATION     3


 AVERAGE FORCE                       141.       TIME AVG. FORCE        83.7    
 LARGEST RESIDUAL FORCE             -70.2       AT NODE       3666   DOF  1
   INSTANCE: BEAM1                                                                           
 LARGEST INCREMENT OF DISP.        -0.228       AT NODE         44   DOF  3
   INSTANCE: BEAM1                                                                           
 LARGEST CORRECTION TO DISP.       -1.197E-03   AT NODE        329   DOF  1
   INSTANCE: BEAM1                                                                           
          FORCE     EQUILIBRIUM NOT ACHIEVED WITHIN TOLERANCE.

 AVERAGE MOMENT                      0.00       TIME AVG. MOMENT      3.962E+03
                                                (FROM FORCE     FIELD)
 LARGEST RESIDUAL MOMENT           -1.843E-07   AT NODE        352   DOF  6
   INSTANCE: PADT                                                                            
 LARGEST INCREMENT OF ROTATION      1.384E-04   AT NODE         27   DOF  5
   INSTANCE: PADR                                                                            
 LARGEST CORRECTION TO ROTATION    -3.246E-07   AT NODE        352   DOF  5
   INSTANCE: PADL                                                                            
          THERE IS ZERO MOMENT    EVERYWHERE
 
	UNSYMMETRIC DIRECT SPARSE SOLVER RUNNING ON
 	1 HOST:        1 MPI RANK  x 4 THREADS
 	NUMBER OF EQUATIONS:     24402
 	NUMBER OF RHS:           1
 	NUMBER OF FLOPS:         5.616e+09

     CHECK POINT   START OF SOLVER    

     CHECK POINT  END OF SOLVER       

       ELAPSED USER TIME (SEC)      =   1.4000    
       ELAPSED SYSTEM TIME (SEC)    =   0.0000    
       ELAPSED TOTAL CPU TIME (SEC) =   1.4000    
       ELAPSED WALLCLOCK TIME (SEC) =          1

               CONVERGENCE CHECKS FOR EQUILIBRIUM ITERATION     4


 AVERAGE FORCE                       141.       TIME AVG. FORCE        83.7    
 LARGEST RESIDUAL FORCE              4.16       AT NODE       5994   DOF  1
   INSTANCE: BEAM1                                                                           
 LARGEST INCREMENT OF DISP.        -0.228       AT NODE         44   DOF  3
   INSTANCE: BEAM1                                                                           
 LARGEST CORRECTION TO DISP.       -2.068E-04   AT NODE        208   DOF  1
   INSTANCE: BEAM1                                                                           
          FORCE     EQUILIBRIUM NOT ACHIEVED WITHIN TOLERANCE.

 AVERAGE MOMENT                      0.00       TIME AVG. MOMENT      3.962E+03
                                                (FROM FORCE     FIELD)
 LARGEST RESIDUAL MOMENT           -2.697E-07   AT NODE        352   DOF  5
   INSTANCE: PADT                                                                            
 LARGEST INCREMENT OF ROTATION      1.385E-04   AT NODE         27   DOF  5
   INSTANCE: PADR                                                                            
 LARGEST CORRECTION TO ROTATION    -5.893E-08   AT NODE        352   DOF  5
   INSTANCE: PADL                                                                            
          THERE IS ZERO MOMENT    EVERYWHERE
 
	UNSYMMETRIC DIRECT SPARSE SOLVER RUNNING ON
 	1 HOST:        1 MPI RANK  x 4 THREADS
 	NUMBER OF EQUATIONS:     24402
 	NUMBER OF RHS:           1
 	NUMBER OF FLOPS:         5.616e+09

     CHECK POINT   START OF SOLVER    

     CHECK POINT  END OF SOLVER       

       ELAPSED USER TIME (SEC)      =   1.5000    
       ELAPSED SYSTEM TIME (SEC)    =  0.10000    
       ELAPSED TOTAL CPU TIME (SEC) =   1.6000    
       ELAPSED WALLCLOCK TIME (SEC) =          0

               CONVERGENCE CHECKS FOR EQUILIBRIUM ITERATION     5


 AVERAGE FORCE                       141.       TIME AVG. FORCE        83.7    
 LARGEST RESIDUAL FORCE            -0.649       AT NODE       4440   DOF  1
   INSTANCE: BEAM1                                                                           
 LARGEST INCREMENT OF DISP.        -0.228       AT NODE         44   DOF  3
   INSTANCE: BEAM1                                                                           
 LARGEST CORRECTION TO DISP.       -1.891E-05   AT NODE       6760   DOF  1
   INSTANCE: BEAM1                                                                           
          FORCE     EQUILIBRIUM NOT ACHIEVED WITHIN TOLERANCE.

 AVERAGE MOMENT                      0.00       TIME AVG. MOMENT      3.962E+03
                                                (FROM FORCE     FIELD)
 LARGEST RESIDUAL MOMENT           -9.415E-07   AT NODE        352   DOF  4
   INSTANCE: PADT                                                                            
 LARGEST INCREMENT OF ROTATION      1.385E-04   AT NODE         27   DOF  5
   INSTANCE: PADR                                                                            
 LARGEST CORRECTION TO ROTATION     5.157E-09   AT NODE        352   DOF  5
   INSTANCE: PADR                                                                            
          THERE IS ZERO MOMENT    EVERYWHERE
 
	UNSYMMETRIC DIRECT SPARSE SOLVER RUNNING ON
 	1 HOST:        1 MPI RANK  x 4 THREADS
 	NUMBER OF EQUATIONS:     24402
 	NUMBER OF RHS:           1
 	NUMBER OF FLOPS:         5.616e+09

     CHECK POINT   START OF SOLVER    

     CHECK POINT  END OF SOLVER       

       ELAPSED USER TIME (SEC)      =   1.5000    
       ELAPSED SYSTEM TIME (SEC)    =   0.0000    
       ELAPSED TOTAL CPU TIME (SEC) =   1.5000    
       ELAPSED WALLCLOCK TIME (SEC) =          1

               CONVERGENCE CHECKS FOR EQUILIBRIUM ITERATION     6


 AVERAGE FORCE                       141.       TIME AVG. FORCE        83.7    
 LARGEST RESIDUAL FORCE             9.395E-03   AT NODE       6381   DOF  1
   INSTANCE: BEAM1                                                                           
 LARGEST INCREMENT OF DISP.        -0.228       AT NODE         64   DOF  3
   INSTANCE: BEAM1                                                                           
 LARGEST CORRECTION TO DISP.       -5.026E-06   AT NODE       6373   DOF  1
   INSTANCE: BEAM1                                                                           
          THE FORCE     EQUILIBRIUM EQUATIONS HAVE CONVERGED

 AVERAGE MOMENT                      0.00       TIME AVG. MOMENT      3.962E+03
                                                (FROM FORCE     FIELD)
 LARGEST RESIDUAL MOMENT            7.379E-07   AT NODE        352   DOF  4
   INSTANCE: PADT                                                                            
 LARGEST INCREMENT OF ROTATION      1.385E-04   AT NODE         27   DOF  5
   INSTANCE: PADR                                                                            
 LARGEST CORRECTION TO ROTATION     1.032E-09   AT NODE         27   DOF  5
   INSTANCE: PADR                                                                            
          THERE IS ZERO MOMENT    EVERYWHERE

 ITERATION SUMMARY FOR THE INCREMENT:   6 TOTAL ITERATIONS, OF WHICH
   0 ARE SEVERE DISCONTINUITY ITERATIONS AND  6 ARE EQUILIBRIUM ITERATIONS.

 TIME INCREMENT COMPLETED  5.063E-02,  FRACTION OF STEP COMPLETED  0.142    
 STEP TIME COMPLETED       0.142    ,  TOTAL TIME COMPLETED        0.342    


  INCREMENT     7 STARTS. ATTEMPT NUMBER  1, TIME INCREMENT  5.063E-02
 
	UNSYMMETRIC DIRECT SPARSE SOLVER RUNNING ON
 	1 HOST:        1 MPI RANK  x 4 THREADS
 	NUMBER OF EQUATIONS:     24402
 	NUMBER OF RHS:           1
 	NUMBER OF FLOPS:         5.616e+09

     CHECK POINT   START OF SOLVER    

     CHECK POINT  END OF SOLVER       

       ELAPSED USER TIME (SEC)      =   1.4000    
       ELAPSED SYSTEM TIME (SEC)    =   0.0000    
       ELAPSED TOTAL CPU TIME (SEC) =   1.4000    
       ELAPSED WALLCLOCK TIME (SEC) =          1
 

 ***WARNING: THE SYSTEM MATRIX HAS 48 NEGATIVE EIGENVALUES.

     NEGATIVE EIGENVALUES MEAN THAT THE SYSTEM MATRIX IS NOT 
     POSITIVE DEFINITE:
     FOR EXAMPLE, A BIFURCATION (BUCKLING) LOAD MAY HAVE BEEN EXCEEDED.

               CONVERGENCE CHECKS FOR EQUILIBRIUM ITERATION     1


 AVERAGE FORCE                       192.       TIME AVG. FORCE        99.2    
 LARGEST RESIDUAL FORCE            -3.755E+04   AT NODE       6373   DOF  1
   INSTANCE: BEAM1                                                                           
 LARGEST INCREMENT OF DISP.        -0.264       AT NODE       3161   DOF  3
   INSTANCE: BEAM1                                                                           
 LARGEST CORRECTION TO DISP.       -5.050E-02   AT NODE        744   DOF  1
   INSTANCE: BEAM1                                                                           
          FORCE     EQUILIBRIUM NOT ACHIEVED WITHIN TOLERANCE.

 AVERAGE MOMENT                      0.00       TIME AVG. MOMENT      4.586E+03
                                                (FROM FORCE     FIELD)
 LARGEST RESIDUAL MOMENT           -1.416E-07   AT NODE        352   DOF  6
   INSTANCE: PADT                                                                            
 LARGEST INCREMENT OF ROTATION      1.534E-04   AT NODE         27   DOF  5
   INSTANCE: PADR                                                                            
 LARGEST CORRECTION TO ROTATION     1.484E-05   AT NODE         27   DOF  5
   INSTANCE: PADR                                                                            
          THERE IS ZERO MOMENT    EVERYWHERE
 
	UNSYMMETRIC DIRECT SPARSE SOLVER RUNNING ON
 	1 HOST:        1 MPI RANK  x 4 THREADS
 	NUMBER OF EQUATIONS:     24402
 	NUMBER OF RHS:           1
 	NUMBER OF FLOPS:         5.616e+09

     CHECK POINT   START OF SOLVER    

     CHECK POINT  END OF SOLVER       

       ELAPSED USER TIME (SEC)      =   1.5000    
       ELAPSED SYSTEM TIME (SEC)    =  0.10000    
       ELAPSED TOTAL CPU TIME (SEC) =   1.6000    
       ELAPSED WALLCLOCK TIME (SEC) =          0
 

 ***WARNING: THE SYSTEM MATRIX HAS 42 NEGATIVE EIGENVALUES.
             EXPLANATIONS ARE SUGGESTED AFTER THE FIRST OCCURRENCE OF THIS MESSAGE.

               CONVERGENCE CHECKS FOR EQUILIBRIUM ITERATION     2


 AVERAGE FORCE                       212.       TIME AVG. FORCE        102.    
 LARGEST RESIDUAL FORCE             4.413E+04   AT NODE       6417   DOF  1
   INSTANCE: BEAM1                                                                           
 LARGEST INCREMENT OF DISP.        -0.409       AT NODE       4412   DOF  3
   INSTANCE: BEAM1                                                                           
 LARGEST CORRECTION TO DISP.       -0.162       AT NODE       4412   DOF  3
   INSTANCE: BEAM1                                                                           
          FORCE     EQUILIBRIUM NOT ACHIEVED WITHIN TOLERANCE.

 AVERAGE MOMENT                      0.00       TIME AVG. MOMENT      4.586E+03
                                                (FROM FORCE     FIELD)
 LARGEST RESIDUAL MOMENT            9.709E-07   AT NODE        352   DOF  5
   INSTANCE: PADT                                                                            
 LARGEST INCREMENT OF ROTATION      2.129E-04   AT NODE         27   DOF  5
   INSTANCE: PADR                                                                            
 LARGEST CORRECTION TO ROTATION     5.955E-05   AT NODE        352   DOF  5
   INSTANCE: PADR                                                                            
          THERE IS ZERO MOMENT    EVERYWHERE
 
	UNSYMMETRIC DIRECT SPARSE SOLVER RUNNING ON
 	1 HOST:        1 MPI RANK  x 4 THREADS
 	NUMBER OF EQUATIONS:     24402
 	NUMBER OF RHS:           1
 	NUMBER OF FLOPS:         5.616e+09

     CHECK POINT   START OF SOLVER    

     CHECK POINT  END OF SOLVER       

       ELAPSED USER TIME (SEC)      =   1.6000    
       ELAPSED SYSTEM TIME (SEC)    =   0.0000    
       ELAPSED TOTAL CPU TIME (SEC) =   1.6000    
       ELAPSED WALLCLOCK TIME (SEC) =          0
 

 ***WARNING: THE SYSTEM MATRIX HAS 40 NEGATIVE EIGENVALUES.
             EXPLANATIONS ARE SUGGESTED AFTER THE FIRST OCCURRENCE OF THIS MESSAGE.

               CONVERGENCE CHECKS FOR EQUILIBRIUM ITERATION     3


 AVERAGE FORCE                       214.       TIME AVG. FORCE        102.    
 LARGEST RESIDUAL FORCE            -4.648E+04   AT NODE       6030   DOF  1
   INSTANCE: BEAM1                                                                           
 LARGEST INCREMENT OF DISP.        -0.417       AT NODE          6   DOF  3
   INSTANCE: BEAM1                                                                           
 LARGEST CORRECTION TO DISP.       -0.124       AT NODE        457   DOF  1
   INSTANCE: BEAM1                                                                           
          FORCE     EQUILIBRIUM NOT ACHIEVED WITHIN TOLERANCE.

 AVERAGE MOMENT                      0.00       TIME AVG. MOMENT      4.586E+03
                                                (FROM FORCE     FIELD)
 LARGEST RESIDUAL MOMENT            2.297E-07   AT NODE        352   DOF  4
   INSTANCE: PADT                                                                            
 LARGEST INCREMENT OF ROTATION      2.227E-04   AT NODE         27   DOF  5
   INSTANCE: PADR                                                                            
 LARGEST CORRECTION TO ROTATION    -9.798E-06   AT NODE         27   DOF  5
   INSTANCE: PADL                                                                            
          THERE IS ZERO MOMENT    EVERYWHERE
 
	UNSYMMETRIC DIRECT SPARSE SOLVER RUNNING ON
 	1 HOST:        1 MPI RANK  x 4 THREADS
 	NUMBER OF EQUATIONS:     24402
 	NUMBER OF RHS:           1
 	NUMBER OF FLOPS:         5.616e+09

     CHECK POINT   START OF SOLVER    

     CHECK POINT  END OF SOLVER       

       ELAPSED USER TIME (SEC)      =   1.5000    
       ELAPSED SYSTEM TIME (SEC)    =   0.0000    
       ELAPSED TOTAL CPU TIME (SEC) =   1.5000    
       ELAPSED WALLCLOCK TIME (SEC) =          1
 

 ***WARNING: THE SYSTEM MATRIX HAS 37 NEGATIVE EIGENVALUES.
             EXPLANATIONS ARE SUGGESTED AFTER THE FIRST OCCURRENCE OF THIS MESSAGE.

               CONVERGENCE CHECKS FOR EQUILIBRIUM ITERATION     4


 AVERAGE FORCE                      4.599E+03   TIME AVG. FORCE        729.    
 LARGEST RESIDUAL FORCE            -1.646E+06   AT NODE       6391   DOF  1
   INSTANCE: BEAM1                                                                           
 LARGEST INCREMENT OF DISP.         -31.9       AT NODE       6382   DOF  3
   INSTANCE: BEAM1                                                                           
 LARGEST CORRECTION TO DISP.        -31.8       AT NODE        794   DOF  1
   INSTANCE: BEAM1                                                                           
          FORCE     EQUILIBRIUM NOT ACHIEVED WITHIN TOLERANCE.

 AVERAGE MOMENT                      0.00       TIME AVG. MOMENT      4.586E+03
                                                (FROM FORCE     FIELD)
 LARGEST RESIDUAL MOMENT            1.257E-04   AT NODE        352   DOF  5
   INSTANCE: PADT                                                                            
 LARGEST INCREMENT OF ROTATION      9.710E-03   AT NODE         27   DOF  5
   INSTANCE: PADR                                                                            
 LARGEST CORRECTION TO ROTATION     9.487E-03   AT NODE         27   DOF  5
   INSTANCE: PADR                                                                            
          THERE IS ZERO MOMENT    EVERYWHERE
 

 ***NOTE: THE SOLUTION APPEARS TO BE DIVERGING. CONVERGENCE IS JUDGED UNLIKELY.


  INCREMENT     7 STARTS. ATTEMPT NUMBER  2, TIME INCREMENT  1.266E-02
 
	UNSYMMETRIC DIRECT SPARSE SOLVER RUNNING ON
 	1 HOST:        1 MPI RANK  x 4 THREADS
 	NUMBER OF EQUATIONS:     24402
 	NUMBER OF RHS:           1
 	NUMBER OF FLOPS:         5.616e+09

     CHECK POINT   START OF SOLVER    

     CHECK POINT  END OF SOLVER       

       ELAPSED USER TIME (SEC)      =   1.4000    
       ELAPSED SYSTEM TIME (SEC)    =  0.10000    
       ELAPSED TOTAL CPU TIME (SEC) =   1.5000    
       ELAPSED WALLCLOCK TIME (SEC) =          0

               CONVERGENCE CHECKS FOR EQUILIBRIUM ITERATION     1


 AVERAGE FORCE                       150.       TIME AVG. FORCE        93.3    
 LARGEST RESIDUAL FORCE              40.2       AT NODE       5662   DOF  1
   INSTANCE: BEAM1                                                                           
 LARGEST INCREMENT OF DISP.        -6.648E-02   AT NODE         44   DOF  3
   INSTANCE: BEAM1                                                                           
 LARGEST CORRECTION TO DISP.       -9.371E-03   AT NODE         40   DOF  3
   INSTANCE: BEAM1                                                                           
          FORCE     EQUILIBRIUM NOT ACHIEVED WITHIN TOLERANCE.

 AVERAGE MOMENT                      0.00       TIME AVG. MOMENT      4.586E+03
                                                (FROM FORCE     FIELD)
 LARGEST RESIDUAL MOMENT            1.159E-07   AT NODE        352   DOF  5
   INSTANCE: PADT                                                                            
 LARGEST INCREMENT OF ROTATION      3.903E-05   AT NODE         27   DOF  5
   INSTANCE: PADR                                                                            
 LARGEST CORRECTION TO ROTATION     4.397E-06   AT NODE         27   DOF  5
   INSTANCE: PADR                                                                            
          THERE IS ZERO MOMENT    EVERYWHERE
 
	UNSYMMETRIC DIRECT SPARSE SOLVER RUNNING ON
 	1 HOST:        1 MPI RANK  x 4 THREADS
 	NUMBER OF EQUATIONS:     24402
 	NUMBER OF RHS:           1
 	NUMBER OF FLOPS:         5.616e+09

     CHECK POINT   START OF SOLVER    

     CHECK POINT  END OF SOLVER       

       ELAPSED USER TIME (SEC)      =   1.4000    
       ELAPSED SYSTEM TIME (SEC)    =   0.0000    
       ELAPSED TOTAL CPU TIME (SEC) =   1.4000    
       ELAPSED WALLCLOCK TIME (SEC) =          0

               CONVERGENCE CHECKS FOR EQUILIBRIUM ITERATION     2


 AVERAGE FORCE                       151.       TIME AVG. FORCE        93.3    
 LARGEST RESIDUAL FORCE            -0.326       AT NODE       1654   DOF  3
   INSTANCE: BEAM1                                                                           
 LARGEST INCREMENT OF DISP.        -6.674E-02   AT NODE         44   DOF  3
   INSTANCE: BEAM1                                                                           
 LARGEST CORRECTION TO DISP.       -2.901E-04   AT NODE       3116   DOF  3
   INSTANCE: BEAM1                                                                           
          THE FORCE     EQUILIBRIUM EQUATIONS HAVE CONVERGED

 AVERAGE MOMENT                      0.00       TIME AVG. MOMENT      4.586E+03
                                                (FROM FORCE     FIELD)
 LARGEST RESIDUAL MOMENT            2.351E-07   AT NODE        352   DOF  4
   INSTANCE: PADT                                                                            
 LARGEST INCREMENT OF ROTATION      3.916E-05   AT NODE         27   DOF  5
   INSTANCE: PADR                                                                            
 LARGEST CORRECTION TO ROTATION    -1.303E-07   AT NODE        352   DOF  5
   INSTANCE: PADL                                                                            
          THERE IS ZERO MOMENT    EVERYWHERE

 ITERATION SUMMARY FOR THE INCREMENT:   2 TOTAL ITERATIONS, OF WHICH
   0 ARE SEVERE DISCONTINUITY ITERATIONS AND  2 ARE EQUILIBRIUM ITERATIONS.

 TIME INCREMENT COMPLETED  1.266E-02,  FRACTION OF STEP COMPLETED  0.155    
 STEP TIME COMPLETED       0.155    ,  TOTAL TIME COMPLETED        0.355    


  INCREMENT     8 STARTS. ATTEMPT NUMBER  1, TIME INCREMENT  1.266E-02
 
	UNSYMMETRIC DIRECT SPARSE SOLVER RUNNING ON
 	1 HOST:        1 MPI RANK  x 4 THREADS
 	NUMBER OF EQUATIONS:     24402
 	NUMBER OF RHS:           1
 	NUMBER OF FLOPS:         5.616e+09

     CHECK POINT   START OF SOLVER    

     CHECK POINT  END OF SOLVER       

       ELAPSED USER TIME (SEC)      =   1.5000    
       ELAPSED SYSTEM TIME (SEC)    =   0.0000    
       ELAPSED TOTAL CPU TIME (SEC) =   1.5000    
       ELAPSED WALLCLOCK TIME (SEC) =          0

               CONVERGENCE CHECKS FOR EQUILIBRIUM ITERATION     1


 AVERAGE FORCE                       161.       TIME AVG. FORCE        102.    
 LARGEST RESIDUAL FORCE            -5.382E+03   AT NODE        655   DOF  1
   INSTANCE: BEAM1                                                                           
 LARGEST INCREMENT OF DISP.        -8.028E-02   AT NODE        700   DOF  3
   INSTANCE: BEAM1                                                                           
 LARGEST CORRECTION TO DISP.       -1.376E-02   AT NODE        700   DOF  3
   INSTANCE: BEAM1                                                                           
          FORCE     EQUILIBRIUM NOT ACHIEVED WITHIN TOLERANCE.

 AVERAGE MOMENT                      0.00       TIME AVG. MOMENT      5.109E+03
                                                (FROM FORCE     FIELD)
 LARGEST RESIDUAL MOMENT           -2.303E-07   AT NODE        352   DOF  4
   INSTANCE: PADT                                                                            
 LARGEST INCREMENT OF ROTATION      4.458E-05   AT NODE         27   DOF  5
   INSTANCE: PADR                                                                            
 LARGEST CORRECTION TO ROTATION     5.423E-06   AT NODE         27   DOF  5
   INSTANCE: PADR                                                                            
          THERE IS ZERO MOMENT    EVERYWHERE
 
	UNSYMMETRIC DIRECT SPARSE SOLVER RUNNING ON
 	1 HOST:        1 MPI RANK  x 4 THREADS
 	NUMBER OF EQUATIONS:     24402
 	NUMBER OF RHS:           1
 	NUMBER OF FLOPS:         5.616e+09

     CHECK POINT   START OF SOLVER    

     CHECK POINT  END OF SOLVER       

       ELAPSED USER TIME (SEC)      =   1.6000    
       ELAPSED SYSTEM TIME (SEC)    =  0.10000    
       ELAPSED TOTAL CPU TIME (SEC) =   1.7000    
       ELAPSED WALLCLOCK TIME (SEC) =          1

               CONVERGENCE CHECKS FOR EQUILIBRIUM ITERATION     2


 AVERAGE FORCE                       161.       TIME AVG. FORCE        102.    
 LARGEST RESIDUAL FORCE              523.       AT NODE        773   DOF  1
   INSTANCE: BEAM1                                                                           
 LARGEST INCREMENT OF DISP.        -7.861E-02   AT NODE         46   DOF  3
   INSTANCE: BEAM1                                                                           
 LARGEST CORRECTION TO DISP.       -8.387E-03   AT NODE         86   DOF  1
   INSTANCE: BEAM1                                                                           
          FORCE     EQUILIBRIUM NOT ACHIEVED WITHIN TOLERANCE.

 AVERAGE MOMENT                      0.00       TIME AVG. MOMENT      5.109E+03
                                                (FROM FORCE     FIELD)
 LARGEST RESIDUAL MOMENT           -8.236E-08   AT NODE        352   DOF  5
   INSTANCE: PADT                                                                            
 LARGEST INCREMENT OF ROTATION      4.485E-05   AT NODE         27   DOF  5
   INSTANCE: PADR                                                                            
 LARGEST CORRECTION TO ROTATION    -2.750E-07   AT NODE         27   DOF  5
   INSTANCE: PADL                                                                            
          THERE IS ZERO MOMENT    EVERYWHERE
 
	UNSYMMETRIC DIRECT SPARSE SOLVER RUNNING ON
 	1 HOST:        1 MPI RANK  x 4 THREADS
 	NUMBER OF EQUATIONS:     24402
 	NUMBER OF RHS:           1
 	NUMBER OF FLOPS:         5.616e+09

     CHECK POINT   START OF SOLVER    

     CHECK POINT  END OF SOLVER       

       ELAPSED USER TIME (SEC)      =   1.5000    
       ELAPSED SYSTEM TIME (SEC)    =   0.0000    
       ELAPSED TOTAL CPU TIME (SEC) =   1.5000    
       ELAPSED WALLCLOCK TIME (SEC) =          0

               CONVERGENCE CHECKS FOR EQUILIBRIUM ITERATION     3


 AVERAGE FORCE                       161.       TIME AVG. FORCE        102.    
 LARGEST RESIDUAL FORCE              62.1       AT NODE        773   DOF  1
   INSTANCE: BEAM1                                                                           
 LARGEST INCREMENT OF DISP.        -7.839E-02   AT NODE         46   DOF  3
   INSTANCE: BEAM1                                                                           
 LARGEST CORRECTION TO DISP.        1.098E-03   AT NODE        118   DOF  1
   INSTANCE: BEAM1                                                                           
          FORCE     EQUILIBRIUM NOT ACHIEVED WITHIN TOLERANCE.

 AVERAGE MOMENT                      0.00       TIME AVG. MOMENT      5.109E+03
                                                (FROM FORCE     FIELD)
 LARGEST RESIDUAL MOMENT            2.793E-07   AT NODE        352   DOF  4
   INSTANCE: PADT                                                                            
 LARGEST INCREMENT OF ROTATION     -4.476E-05   AT NODE         27   DOF  5
   INSTANCE: PADL                                                                            
 LARGEST CORRECTION TO ROTATION    -9.698E-08   AT NODE         27   DOF  5
   INSTANCE: PADR                                                                            
          THERE IS ZERO MOMENT    EVERYWHERE
 
	UNSYMMETRIC DIRECT SPARSE SOLVER RUNNING ON
 	1 HOST:        1 MPI RANK  x 4 THREADS
 	NUMBER OF EQUATIONS:     24402
 	NUMBER OF RHS:           1
 	NUMBER OF FLOPS:         5.616e+09

     CHECK POINT   START OF SOLVER    

     CHECK POINT  END OF SOLVER       

       ELAPSED USER TIME (SEC)      =   1.5000    
       ELAPSED SYSTEM TIME (SEC)    =  0.10000    
       ELAPSED TOTAL CPU TIME (SEC) =   1.6000    
       ELAPSED WALLCLOCK TIME (SEC) =          1

               CONVERGENCE CHECKS FOR EQUILIBRIUM ITERATION     4


 AVERAGE FORCE                       161.       TIME AVG. FORCE        102.    
 LARGEST RESIDUAL FORCE             -7.18       AT NODE         86   DOF  3
   INSTANCE: BEAM1                                                                           
 LARGEST INCREMENT OF DISP.        -7.837E-02   AT NODE         44   DOF  3
   INSTANCE: BEAM1                                                                           
 LARGEST CORRECTION TO DISP.        9.636E-04   AT NODE        118   DOF  1
   INSTANCE: BEAM1                                                                           
          FORCE     EQUILIBRIUM NOT ACHIEVED WITHIN TOLERANCE.

 AVERAGE MOMENT                      0.00       TIME AVG. MOMENT      5.109E+03
                                                (FROM FORCE     FIELD)
 LARGEST RESIDUAL MOMENT           -1.600E-07   AT NODE        352   DOF  4
   INSTANCE: PADT                                                                            
 LARGEST INCREMENT OF ROTATION     -4.474E-05   AT NODE         27   DOF  5
   INSTANCE: PADL                                                                            
 LARGEST CORRECTION TO ROTATION     1.994E-08   AT NODE         27   DOF  5
   INSTANCE: PADL                                                                            
          THERE IS ZERO MOMENT    EVERYWHERE
 
	UNSYMMETRIC DIRECT SPARSE SOLVER RUNNING ON
 	1 HOST:        1 MPI RANK  x 4 THREADS
 	NUMBER OF EQUATIONS:     24402
 	NUMBER OF RHS:           1
 	NUMBER OF FLOPS:         5.616e+09

     CHECK POINT   START OF SOLVER    

     CHECK POINT  END OF SOLVER       

       ELAPSED USER TIME (SEC)      =   1.6000    
       ELAPSED SYSTEM TIME (SEC)    =   0.0000    
       ELAPSED TOTAL CPU TIME (SEC) =   1.6000    
       ELAPSED WALLCLOCK TIME (SEC) =          1

               CONVERGENCE CHECKS FOR EQUILIBRIUM ITERATION     5


 AVERAGE FORCE                       161.       TIME AVG. FORCE        102.    
 LARGEST RESIDUAL FORCE            -6.375E-02   AT NODE       4412   DOF  1
   INSTANCE: BEAM1                                                                           
 LARGEST INCREMENT OF DISP.        -7.842E-02   AT NODE         44   DOF  3
   INSTANCE: BEAM1                                                                           
 LARGEST CORRECTION TO DISP.       -5.949E-05   AT NODE         86   DOF  3
   INSTANCE: BEAM1                                                                           
          THE FORCE     EQUILIBRIUM EQUATIONS HAVE CONVERGED

 AVERAGE MOMENT                      0.00       TIME AVG. MOMENT      5.109E+03
                                                (FROM FORCE     FIELD)
 LARGEST RESIDUAL MOMENT           -1.105E-07   AT NODE        352   DOF  4
   INSTANCE: PADT                                                                            
 LARGEST INCREMENT OF ROTATION     -4.476E-05   AT NODE         27   DOF  5
   INSTANCE: PADL                                                                            
 LARGEST CORRECTION TO ROTATION    -2.016E-08   AT NODE         27   DOF  5
   INSTANCE: PADL                                                                            
          THERE IS ZERO MOMENT    EVERYWHERE

 ITERATION SUMMARY FOR THE INCREMENT:   5 TOTAL ITERATIONS, OF WHICH
   0 ARE SEVERE DISCONTINUITY ITERATIONS AND  5 ARE EQUILIBRIUM ITERATIONS.

 TIME INCREMENT COMPLETED  1.266E-02,  FRACTION OF STEP COMPLETED  0.167    
 STEP TIME COMPLETED       0.167    ,  TOTAL TIME COMPLETED        0.367    


  INCREMENT     9 STARTS. ATTEMPT NUMBER  1, TIME INCREMENT  1.266E-02
 
	UNSYMMETRIC DIRECT SPARSE SOLVER RUNNING ON
 	1 HOST:        1 MPI RANK  x 4 THREADS
 	NUMBER OF EQUATIONS:     24402
 	NUMBER OF RHS:           1
 	NUMBER OF FLOPS:         5.616e+09

     CHECK POINT   START OF SOLVER    

     CHECK POINT  END OF SOLVER       

       ELAPSED USER TIME (SEC)      =   1.5000    
       ELAPSED SYSTEM TIME (SEC)    =   0.0000    
       ELAPSED TOTAL CPU TIME (SEC) =   1.5000    
       ELAPSED WALLCLOCK TIME (SEC) =          0
 

 ***WARNING: THE SYSTEM MATRIX HAS 5 NEGATIVE EIGENVALUES.
             EXPLANATIONS ARE SUGGESTED AFTER THE FIRST OCCURRENCE OF THIS MESSAGE.

               CONVERGENCE CHECKS FOR EQUILIBRIUM ITERATION     1


 AVERAGE FORCE                       176.       TIME AVG. FORCE        110.    
 LARGEST RESIDUAL FORCE             3.126E+03   AT NODE       6391   DOF  1
   INSTANCE: BEAM1                                                                           
 LARGEST INCREMENT OF DISP.        -0.106       AT NODE       1609   DOF  3
   INSTANCE: BEAM1                                                                           
 LARGEST CORRECTION TO DISP.       -2.796E-02   AT NODE       1609   DOF  3
   INSTANCE: BEAM1                                                                           
          FORCE     EQUILIBRIUM NOT ACHIEVED WITHIN TOLERANCE.

 AVERAGE MOMENT                      0.00       TIME AVG. MOMENT      5.571E+03
                                                (FROM FORCE     FIELD)
 LARGEST RESIDUAL MOMENT            9.142E-08   AT NODE        352   DOF  4
   INSTANCE: PADT                                                                            
 LARGEST INCREMENT OF ROTATION      5.729E-05   AT NODE         27   DOF  5
   INSTANCE: PADR                                                                            
 LARGEST CORRECTION TO ROTATION     1.253E-05   AT NODE         27   DOF  5
   INSTANCE: PADR                                                                            
          THERE IS ZERO MOMENT    EVERYWHERE
 
	UNSYMMETRIC DIRECT SPARSE SOLVER RUNNING ON
 	1 HOST:        1 MPI RANK  x 4 THREADS
 	NUMBER OF EQUATIONS:     24402
 	NUMBER OF RHS:           1
 	NUMBER OF FLOPS:         5.616e+09

     CHECK POINT   START OF SOLVER    

     CHECK POINT  END OF SOLVER       

       ELAPSED USER TIME (SEC)      =   1.6000    
       ELAPSED SYSTEM TIME (SEC)    =   0.0000    
       ELAPSED TOTAL CPU TIME (SEC) =   1.6000    
       ELAPSED WALLCLOCK TIME (SEC) =          0

               CONVERGENCE CHECKS FOR EQUILIBRIUM ITERATION     2


 AVERAGE FORCE                       176.       TIME AVG. FORCE        110.    
 LARGEST RESIDUAL FORCE             -193.       AT NODE       6362   DOF  1
   INSTANCE: BEAM1                                                                           
 LARGEST INCREMENT OF DISP.        -0.102       AT NODE       3159   DOF  3
   INSTANCE: BEAM1                                                                           
 LARGEST CORRECTION TO DISP.        4.903E-03   AT NODE       1655   DOF  1
   INSTANCE: BEAM1                                                                           
          FORCE     EQUILIBRIUM NOT ACHIEVED WITHIN TOLERANCE.

 AVERAGE MOMENT                      0.00       TIME AVG. MOMENT      5.571E+03
                                                (FROM FORCE     FIELD)
 LARGEST RESIDUAL MOMENT            5.076E-08   AT NODE        352   DOF  5
   INSTANCE: PADT                                                                            
 LARGEST INCREMENT OF ROTATION     -5.615E-05   AT NODE         27   DOF  5
   INSTANCE: PADL                                                                            
 LARGEST CORRECTION TO ROTATION    -1.139E-06   AT NODE         27   DOF  5
   INSTANCE: PADR                                                                            
          THERE IS ZERO MOMENT    EVERYWHERE
 
	UNSYMMETRIC DIRECT SPARSE SOLVER RUNNING ON
 	1 HOST:        1 MPI RANK  x 4 THREADS
 	NUMBER OF EQUATIONS:     24402
 	NUMBER OF RHS:           1
 	NUMBER OF FLOPS:         5.616e+09

     CHECK POINT   START OF SOLVER    

     CHECK POINT  END OF SOLVER       

       ELAPSED USER TIME (SEC)      =   1.6000    
       ELAPSED SYSTEM TIME (SEC)    =   0.0000    
       ELAPSED TOTAL CPU TIME (SEC) =   1.6000    
       ELAPSED WALLCLOCK TIME (SEC) =          1
 

 ***WARNING: THE SYSTEM MATRIX HAS 4 NEGATIVE EIGENVALUES.
             EXPLANATIONS ARE SUGGESTED AFTER THE FIRST OCCURRENCE OF THIS MESSAGE.

               CONVERGENCE CHECKS FOR EQUILIBRIUM ITERATION     3


[...]
       ELAPSED SYSTEM TIME (SEC)    =   0.0000    
       ELAPSED TOTAL CPU TIME (SEC) =   1.5000    
       ELAPSED WALLCLOCK TIME (SEC) =          0
 

 ***WARNING: THE SYSTEM MATRIX HAS 18 NEGATIVE EIGENVALUES.
             EXPLANATIONS ARE SUGGESTED AFTER THE FIRST OCCURRENCE OF THIS MESSAGE.

               CONVERGENCE CHECKS FOR EQUILIBRIUM ITERATION     2


 AVERAGE FORCE                       832.       TIME AVG. FORCE        578.    
 LARGEST RESIDUAL FORCE            -2.723E+03   AT NODE        806   DOF  3
   INSTANCE: BEAM1                                                                           
 LARGEST INCREMENT OF DISP.        -0.895       AT NODE         35   DOF  3
   INSTANCE: BEAM1                                                                           
 LARGEST CORRECTION TO DISP.        0.122       AT NODE       2043   DOF  1
   INSTANCE: BEAM1                                                                           
          FORCE     EQUILIBRIUM NOT ACHIEVED WITHIN TOLERANCE.

 AVERAGE MOMENT                      0.00       TIME AVG. MOMENT      3.154E+04
                                                (FROM FORCE     FIELD)
 LARGEST RESIDUAL MOMENT            1.009E-06   AT NODE        352   DOF  5
   INSTANCE: PADT                                                                            
 LARGEST INCREMENT OF ROTATION     -4.106E-04   AT NODE         27   DOF  5
   INSTANCE: PADL                                                                            
 LARGEST CORRECTION TO ROTATION    -6.820E-06   AT NODE        352   DOF  5
   INSTANCE: PADR                                                                            
          THERE IS ZERO MOMENT    EVERYWHERE
 
	UNSYMMETRIC DIRECT SPARSE SOLVER RUNNING ON
 	1 HOST:        1 MPI RANK  x 4 THREADS
 	NUMBER OF EQUATIONS:     24402
 	NUMBER OF RHS:           1
 	NUMBER OF FLOPS:         5.616e+09

     CHECK POINT   START OF SOLVER    

     CHECK POINT  END OF SOLVER       

       ELAPSED USER TIME (SEC)      =   1.3000    
       ELAPSED SYSTEM TIME (SEC)    =  0.10000    
       ELAPSED TOTAL CPU TIME (SEC) =   1.4000    
       ELAPSED WALLCLOCK TIME (SEC) =          1
 

 ***WARNING: THE SYSTEM MATRIX HAS 16 NEGATIVE EIGENVALUES.
             EXPLANATIONS ARE SUGGESTED AFTER THE FIRST OCCURRENCE OF THIS MESSAGE.

               CONVERGENCE CHECKS FOR EQUILIBRIUM ITERATION     3


 AVERAGE FORCE                       831.       TIME AVG. FORCE        578.    
 LARGEST RESIDUAL FORCE              899.       AT NODE        789   DOF  1
   INSTANCE: BEAM1                                                                           
 LARGEST INCREMENT OF DISP.        -0.866       AT NODE        602   DOF  3
   INSTANCE: BEAM1                                                                           
 LARGEST CORRECTION TO DISP.        4.358E-02   AT NODE        806   DOF  1
   INSTANCE: BEAM1                                                                           
          FORCE     EQUILIBRIUM NOT ACHIEVED WITHIN TOLERANCE.

 AVERAGE MOMENT                      0.00       TIME AVG. MOMENT      3.154E+04
                                                (FROM FORCE     FIELD)
 LARGEST RESIDUAL MOMENT            6.321E-07   AT NODE        352   DOF  4
   INSTANCE: PADT                                                                            
 LARGEST INCREMENT OF ROTATION     -4.006E-04   AT NODE         27   DOF  5
   INSTANCE: PADL                                                                            
 LARGEST CORRECTION TO ROTATION     9.965E-06   AT NODE        352   DOF  5
   INSTANCE: PADL                                                                            
          THERE IS ZERO MOMENT    EVERYWHERE
 
	UNSYMMETRIC DIRECT SPARSE SOLVER RUNNING ON
 	1 HOST:        1 MPI RANK  x 4 THREADS
 	NUMBER OF EQUATIONS:     24402
 	NUMBER OF RHS:           1
 	NUMBER OF FLOPS:         5.616e+09

     CHECK POINT   START OF SOLVER    

     CHECK POINT  END OF SOLVER       

       ELAPSED USER TIME (SEC)      =   1.5000    
       ELAPSED SYSTEM TIME (SEC)    =  0.10000    
       ELAPSED TOTAL CPU TIME (SEC) =   1.6000    
       ELAPSED WALLCLOCK TIME (SEC) =          0
 

 ***WARNING: THE SYSTEM MATRIX HAS 16 NEGATIVE EIGENVALUES.
             EXPLANATIONS ARE SUGGESTED AFTER THE FIRST OCCURRENCE OF THIS MESSAGE.

               CONVERGENCE CHECKS FOR EQUILIBRIUM ITERATION     4


 AVERAGE FORCE                       830.       TIME AVG. FORCE        578.    
 LARGEST RESIDUAL FORCE              422.       AT NODE        630   DOF  1
   INSTANCE: BEAM1                                                                           
 LARGEST INCREMENT OF DISP.        -0.872       AT NODE        611   DOF  3
   INSTANCE: BEAM1                                                                           
 LARGEST CORRECTION TO DISP.       -9.086E-03   AT NODE       4031   DOF  1
   INSTANCE: BEAM1                                                                           
          FORCE     EQUILIBRIUM NOT ACHIEVED WITHIN TOLERANCE.

 AVERAGE MOMENT                      0.00       TIME AVG. MOMENT      3.154E+04
                                                (FROM FORCE     FIELD)
 LARGEST RESIDUAL MOMENT           -1.239E-06   AT NODE        352   DOF  4
   INSTANCE: PADT                                                                            
 LARGEST INCREMENT OF ROTATION      4.029E-04   AT NODE         27   DOF  5
   INSTANCE: PADR                                                                            
 LARGEST CORRECTION TO ROTATION     2.273E-06   AT NODE         27   DOF  5
   INSTANCE: PADR                                                                            
          THERE IS ZERO MOMENT    EVERYWHERE
 
	UNSYMMETRIC DIRECT SPARSE SOLVER RUNNING ON
 	1 HOST:        1 MPI RANK  x 4 THREADS
 	NUMBER OF EQUATIONS:     24402
 	NUMBER OF RHS:           1
 	NUMBER OF FLOPS:         5.616e+09

     CHECK POINT   START OF SOLVER    

     CHECK POINT  END OF SOLVER       

       ELAPSED USER TIME (SEC)      =   1.4000    
       ELAPSED SYSTEM TIME (SEC)    =  0.10000    
       ELAPSED TOTAL CPU TIME (SEC) =   1.5000    
       ELAPSED WALLCLOCK TIME (SEC) =          0
 

 ***WARNING: THE SYSTEM MATRIX HAS 20 NEGATIVE EIGENVALUES.
             EXPLANATIONS ARE SUGGESTED AFTER THE FIRST OCCURRENCE OF THIS MESSAGE.

               CONVERGENCE CHECKS FOR EQUILIBRIUM ITERATION     5


 AVERAGE FORCE                       830.       TIME AVG. FORCE        578.    
 LARGEST RESIDUAL FORCE             -197.       AT NODE        784   DOF  1
   INSTANCE: BEAM1                                                                           
 LARGEST INCREMENT OF DISP.        -0.872       AT NODE        729   DOF  3
   INSTANCE: BEAM1                                                                           
 LARGEST CORRECTION TO DISP.        5.205E-03   AT NODE       4805   DOF  1
   INSTANCE: BEAM1                                                                           
          FORCE     EQUILIBRIUM NOT ACHIEVED WITHIN TOLERANCE.

 AVERAGE MOMENT                      0.00       TIME AVG. MOMENT      3.154E+04
                                                (FROM FORCE     FIELD)
 LARGEST RESIDUAL MOMENT            5.951E-07   AT NODE        352   DOF  5
   INSTANCE: PADT                                                                            
 LARGEST INCREMENT OF ROTATION      4.029E-04   AT NODE         27   DOF  5
   INSTANCE: PADR                                                                            
 LARGEST CORRECTION TO ROTATION     1.481E-08   AT NODE         27   DOF  5
   INSTANCE: PADL                                                                            
          THERE IS ZERO MOMENT    EVERYWHERE
 
	UNSYMMETRIC DIRECT SPARSE SOLVER RUNNING ON
 	1 HOST:        1 MPI RANK  x 4 THREADS
 	NUMBER OF EQUATIONS:     24402
 	NUMBER OF RHS:           1
 	NUMBER OF FLOPS:         5.616e+09

     CHECK POINT   START OF SOLVER    

     CHECK POINT  END OF SOLVER       

       ELAPSED USER TIME (SEC)      =   1.7000    
       ELAPSED SYSTEM TIME (SEC)    =   0.0000    
       ELAPSED TOTAL CPU TIME (SEC) =   1.7000    
       ELAPSED WALLCLOCK TIME (SEC) =          1
 

 ***WARNING: THE SYSTEM MATRIX HAS 24 NEGATIVE EIGENVALUES.
             EXPLANATIONS ARE SUGGESTED AFTER THE FIRST OCCURRENCE OF THIS MESSAGE.

               CONVERGENCE CHECKS FOR EQUILIBRIUM ITERATION     6


 AVERAGE FORCE                       830.       TIME AVG. FORCE        578.    
 LARGEST RESIDUAL FORCE             -72.5       AT NODE        747   DOF  1
   INSTANCE: BEAM1                                                                           
 LARGEST INCREMENT OF DISP.        -0.870       AT NODE        729   DOF  3
   INSTANCE: BEAM1                                                                           
 LARGEST CORRECTION TO DISP.       -1.532E-02   AT NODE       4031   DOF  1
   INSTANCE: BEAM1                                                                           
          FORCE     EQUILIBRIUM NOT ACHIEVED WITHIN TOLERANCE.

 AVERAGE MOMENT                      0.00       TIME AVG. MOMENT      3.154E+04
                                                (FROM FORCE     FIELD)
 LARGEST RESIDUAL MOMENT            8.463E-07   AT NODE        352   DOF  4
   INSTANCE: PADT                                                                            
 LARGEST INCREMENT OF ROTATION      4.024E-04   AT NODE         27   DOF  5
   INSTANCE: PADR                                                                            
 LARGEST CORRECTION TO ROTATION     5.671E-07   AT NODE        352   DOF  5
   INSTANCE: PADL                                                                            
          THERE IS ZERO MOMENT    EVERYWHERE
 
	UNSYMMETRIC DIRECT SPARSE SOLVER RUNNING ON
 	1 HOST:        1 MPI RANK  x 4 THREADS
 	NUMBER OF EQUATIONS:     24402
 	NUMBER OF RHS:           1
 	NUMBER OF FLOPS:         5.616e+09

     CHECK POINT   START OF SOLVER    

     CHECK POINT  END OF SOLVER       

       ELAPSED USER TIME (SEC)      =   1.5000    
       ELAPSED SYSTEM TIME (SEC)    =  0.10000    
       ELAPSED TOTAL CPU TIME (SEC) =   1.6000    
       ELAPSED WALLCLOCK TIME (SEC) =          0
 

 ***WARNING: THE SYSTEM MATRIX HAS 20 NEGATIVE EIGENVALUES.
             EXPLANATIONS ARE SUGGESTED AFTER THE FIRST OCCURRENCE OF THIS MESSAGE.

               CONVERGENCE CHECKS FOR EQUILIBRIUM ITERATION     7


 AVERAGE FORCE                       830.       TIME AVG. FORCE        578.    
 LARGEST RESIDUAL FORCE              9.63       AT NODE       7121   DOF  1
   INSTANCE: BEAM1                                                                           
 LARGEST INCREMENT OF DISP.        -0.871       AT NODE        720   DOF  3
   INSTANCE: BEAM1                                                                           
 LARGEST CORRECTION TO DISP.       -1.499E-03   AT NODE        758   DOF  3
   INSTANCE: BEAM1                                                                           
          FORCE     EQUILIBRIUM NOT ACHIEVED WITHIN TOLERANCE.

 AVERAGE MOMENT                      0.00       TIME AVG. MOMENT      3.154E+04
                                                (FROM FORCE     FIELD)
 LARGEST RESIDUAL MOMENT           -3.661E-07   AT NODE        352   DOF  4
   INSTANCE: PADT                                                                            
 LARGEST INCREMENT OF ROTATION      4.026E-04   AT NODE         27   DOF  5
   INSTANCE: PADR                                                                            
 LARGEST CORRECTION TO ROTATION    -2.771E-07   AT NODE         27   DOF  5
   INSTANCE: PADT                                                                            
          THERE IS ZERO MOMENT    EVERYWHERE
 
	UNSYMMETRIC DIRECT SPARSE SOLVER RUNNING ON
 	1 HOST:        1 MPI RANK  x 4 THREADS
 	NUMBER OF EQUATIONS:     24402
 	NUMBER OF RHS:           1
 	NUMBER OF FLOPS:         5.616e+09

     CHECK POINT   START OF SOLVER    

     CHECK POINT  END OF SOLVER       

       ELAPSED USER TIME (SEC)      =   1.7000    
       ELAPSED SYSTEM TIME (SEC)    =   0.0000    
       ELAPSED TOTAL CPU TIME (SEC) =   1.7000    
       ELAPSED WALLCLOCK TIME (SEC) =          0
 

 ***WARNING: THE SYSTEM MATRIX HAS 24 NEGATIVE EIGENVALUES.
             EXPLANATIONS ARE SUGGESTED AFTER THE FIRST OCCURRENCE OF THIS MESSAGE.

               CONVERGENCE CHECKS FOR EQUILIBRIUM ITERATION     8


 AVERAGE FORCE                       830.       TIME AVG. FORCE        578.    
 LARGEST RESIDUAL FORCE             -1.15       AT NODE         90   DOF  1
   INSTANCE: BEAM1                                                                           
 LARGEST INCREMENT OF DISP.        -0.871       AT NODE        720   DOF  3
   INSTANCE: BEAM1                                                                           
 LARGEST CORRECTION TO DISP.       -1.298E-04   AT NODE       2429   DOF  1
   INSTANCE: BEAM1                                                                           
          THE FORCE     EQUILIBRIUM EQUATIONS HAVE CONVERGED

 AVERAGE MOMENT                      0.00       TIME AVG. MOMENT      3.154E+04
                                                (FROM FORCE     FIELD)
 LARGEST RESIDUAL MOMENT            1.214E-06   AT NODE        352   DOF  5
   INSTANCE: PADT                                                                            
 LARGEST INCREMENT OF ROTATION      4.026E-04   AT NODE         27   DOF  5
   INSTANCE: PADR                                                                            
 LARGEST CORRECTION TO ROTATION    -1.521E-07   AT NODE         27   DOF  5
   INSTANCE: PADT                                                                            
          THERE IS ZERO MOMENT    EVERYWHERE

 ITERATION SUMMARY FOR THE INCREMENT:   8 TOTAL ITERATIONS, OF WHICH
   0 ARE SEVERE DISCONTINUITY ITERATIONS AND  8 ARE EQUILIBRIUM ITERATIONS.

 TIME INCREMENT COMPLETED  1.116E-03,  FRACTION OF STEP COMPLETED   1.00    
 STEP TIME COMPLETED        1.00    ,  TOTAL TIME COMPLETED         1.20    


  INCREMENT   143 STARTS. ATTEMPT NUMBER  1, TIME INCREMENT  4.422E-04
 
	UNSYMMETRIC DIRECT SPARSE SOLVER RUNNING ON
 	1 HOST:        1 MPI RANK  x 4 THREADS
 	NUMBER OF EQUATIONS:     24402
 	NUMBER OF RHS:           1
 	NUMBER OF FLOPS:         5.616e+09

     CHECK POINT   START OF SOLVER    

     CHECK POINT  END OF SOLVER       

       ELAPSED USER TIME (SEC)      =   1.4000    
       ELAPSED SYSTEM TIME (SEC)    =  0.10000    
       ELAPSED TOTAL CPU TIME (SEC) =   1.5000    
       ELAPSED WALLCLOCK TIME (SEC) =          0
 

 ***WARNING: THE SYSTEM MATRIX HAS 4 NEGATIVE EIGENVALUES.
             EXPLANATIONS ARE SUGGESTED AFTER THE FIRST OCCURRENCE OF THIS MESSAGE.

               CONVERGENCE CHECKS FOR EQUILIBRIUM ITERATION     1


 AVERAGE FORCE                       830.       TIME AVG. FORCE        579.    
 LARGEST RESIDUAL FORCE             -137.       AT NODE        795   DOF  1
   INSTANCE: BEAM1                                                                           
 LARGEST INCREMENT OF DISP.        -0.353       AT NODE         43   DOF  3
   INSTANCE: BEAM1                                                                           
 LARGEST CORRECTION TO DISP.       -1.106E-02   AT NODE       2440   DOF  1
   INSTANCE: BEAM1                                                                           
          FORCE     EQUILIBRIUM NOT ACHIEVED WITHIN TOLERANCE.

 AVERAGE MOMENT                      0.00       TIME AVG. MOMENT      3.164E+04
                                                (FROM FORCE     FIELD)
 LARGEST RESIDUAL MOMENT            7.513E-07   AT NODE        352   DOF  4
   INSTANCE: PADT                                                                            
 LARGEST INCREMENT OF ROTATION     -1.633E-04   AT NODE         27   DOF  5
   INSTANCE: PADL                                                                            
 LARGEST CORRECTION TO ROTATION    -3.753E-06   AT NODE        352   DOF  5
   INSTANCE: PADL                                                                            
          THERE IS ZERO MOMENT    EVERYWHERE
 
	UNSYMMETRIC DIRECT SPARSE SOLVER RUNNING ON
 	1 HOST:        1 MPI RANK  x 4 THREADS
 	NUMBER OF EQUATIONS:     24402
 	NUMBER OF RHS:           1
 	NUMBER OF FLOPS:         5.616e+09

     CHECK POINT   START OF SOLVER    

     CHECK POINT  END OF SOLVER       

       ELAPSED USER TIME (SEC)      =   1.4000    
       ELAPSED SYSTEM TIME (SEC)    =  0.10000    
       ELAPSED TOTAL CPU TIME (SEC) =   1.5000    
       ELAPSED WALLCLOCK TIME (SEC) =          1
 

 ***WARNING: THE SYSTEM MATRIX HAS 2 NEGATIVE EIGENVALUES.
             EXPLANATIONS ARE SUGGESTED AFTER THE FIRST OCCURRENCE OF THIS MESSAGE.

               CONVERGENCE CHECKS FOR EQUILIBRIUM ITERATION     2


 AVERAGE FORCE                       830.       TIME AVG. FORCE        579.    
 LARGEST RESIDUAL FORCE             0.691       AT NODE       7122   DOF  1
   INSTANCE: BEAM1                                                                           
 LARGEST INCREMENT OF DISP.        -0.355       AT NODE         65   DOF  3
   INSTANCE: BEAM1                                                                           
 LARGEST CORRECTION TO DISP.       -3.373E-03   AT NODE         95   DOF  1
   INSTANCE: BEAM1                                                                           
          THE FORCE     EQUILIBRIUM EQUATIONS HAVE CONVERGED

 AVERAGE MOMENT                      0.00       TIME AVG. MOMENT      3.164E+04
                                                (FROM FORCE     FIELD)
 LARGEST RESIDUAL MOMENT           -6.124E-07   AT NODE        352   DOF  5
   INSTANCE: PADT                                                                            
 LARGEST INCREMENT OF ROTATION      1.643E-04   AT NODE         27   DOF  5
   INSTANCE: PADR                                                                            
 LARGEST CORRECTION TO ROTATION     1.003E-06   AT NODE        352   DOF  5
   INSTANCE: PADR                                                                            
          THERE IS ZERO MOMENT    EVERYWHERE

 ITERATION SUMMARY FOR THE INCREMENT:   2 TOTAL ITERATIONS, OF WHICH
   0 ARE SEVERE DISCONTINUITY ITERATIONS AND  2 ARE EQUILIBRIUM ITERATIONS.

 TIME INCREMENT COMPLETED  4.422E-04,  FRACTION OF STEP COMPLETED   1.00    
 STEP TIME COMPLETED        1.00    ,  TOTAL TIME COMPLETED         1.20    


          THE ANALYSIS HAS BEEN COMPLETED



     ANALYSIS SUMMARY:
     TOTAL OF        150  INCREMENTS
                      32  CUTBACKS IN AUTOMATIC INCREMENTATION
                     593  ITERATIONS INCLUDING CONTACT ITERATIONS IF PRESENT
                     593  PASSES THROUGH THE EQUATION SOLVER OF WHICH 
                     583  INVOLVE MATRIX DECOMPOSITION, INCLUDING
                       0  DECOMPOSITION(S) OF THE MASS MATRIX
                       1  REORDERING OF EQUATIONS TO MINIMIZE WAVEFRONT
                       0  ADDITIONAL RESIDUAL EVALUATIONS FOR LINE SEARCHES
                       0  ADDITIONAL OPERATOR EVALUATIONS FOR LINE SEARCHES
                       3  WARNING MESSAGES DURING USER INPUT PROCESSING
                     291  WARNING MESSAGES DURING ANALYSIS
                       0  ANALYSIS WARNINGS ARE NUMERICAL PROBLEM MESSAGES
                     288  ANALYSIS WARNINGS ARE NEGATIVE EIGENVALUE MESSAGES
                       0  ERROR MESSAGES



     JOB TIME SUMMARY
       USER TIME (SEC)      =   1371.8    
       SYSTEM TIME (SEC)    =   39.700    
       TOTAL CPU TIME (SEC) =   1411.5    
       WALLCLOCK TIME (SEC) =        427
