 Abaqus/Standard 2022                  DATE 30-3ÔÂ-2025 TIME 02:10:57
 SUMMARY OF JOB INFORMATION:
 STEP  INC ATT SEVERE EQUIL TOTAL  TOTAL      STEP       INC OF       DOF    IF
               DISCON ITERS ITERS  TIME/    TIME/LPF    TIME/LPF    MONITOR RIKS
               ITERS               FREQ
   1     1   1     0     1     1  0.0100     0.0100     0.01000   
   1     2   1     0     1     1  0.0200     0.0200     0.01000   
   1     3   1     0     1     1  0.0350     0.0350     0.01500   
   1     4   1     0     1     1  0.0575     0.0575     0.02250   
   1     5   1     0     1     1  0.0912     0.0912     0.03375   
   1     6   1     0     1     1  0.142      0.142      0.05063   
   1     7   1     0     1     1  0.200      0.200      0.05813   
   2     1   1     0     1     1  0.210      0.0100     0.01000   
   2     2   1     0     1     1  0.220      0.0200     0.01000   
   2     3   1     0     1     1  0.235      0.0350     0.01500   
   2     4   1     0     1     1  0.258      0.0575     0.02250   
   2     5   1     0     1     1  0.291      0.0912     0.03375   
   2     6   1     0     6     6  0.342      0.142      0.05063   
   2     7   1U    0     4     4  0.342      0.142      0.05063   
   2     7   2     0     2     2  0.355      0.155      0.01266   
   2     8   1     0     5     5  0.367      0.167      0.01266   
   2     9   1U    0     6     6  0.367      0.167      0.01266   
   2     9   2     0     2     2  0.370      0.170      0.003164  
   2    10   1     0     2     2  0.374      0.174      0.003164  
   2    11   1     0     2     2  0.378      0.178      0.004746  
   2    12   1     0     3     3  0.385      0.185      0.007119  
   2    13   1     0     4     4  0.396      0.196      0.01068   
   2    14   1     0    10    10  0.412      0.212      0.01602   
   2    15   1     0     6     6  0.428      0.228      0.01602   
   2    16   1     0     5     5  0.444      0.244      0.01602   
   2    17   1     0     4     4  0.460      0.260      0.01602   
   2    18   1     0     6     6  0.476      0.276      0.01602   
   2    19   1     0     4     4  0.492      0.292      0.01602   
   2    20   1     0     3     3  0.508      0.308      0.01602   
   2    21   1     0     5     5  0.532      0.332      0.02403   
   2    22   1U    0     5     5  0.532      0.332      0.02403   
   2    22   2     0     2     2  0.538      0.338      0.006007  
   2    23   1     0     2     2  0.544      0.344      0.006007  
   2    24   1     0     2     2  0.553      0.353      0.009010  
   2    25   1     0     4     4  0.567      0.367      0.01352   
   2    26   1     0     4     4  0.587      0.387      0.02027   
   2    27   1U    0     5     5  0.587      0.387      0.03041   
   2    27   2     0     3     3  0.595      0.395      0.007602  
   2    28   1     0     3     3  0.606      0.406      0.01140   
   2    29   1     0     4     4  0.623      0.423      0.01711   
   2    30   1U    0     5     5  0.623      0.423      0.02566   
   2    30   2     0     2     2  0.630      0.430      0.006414  
   2    31   1     0     3     3  0.639      0.439      0.009622  
   2    32   1     0     4     4  0.654      0.454      0.01443   
   2    33   1U    0     3     3  0.654      0.454      0.02165   
   2    33   2     0     2     2  0.659      0.459      0.005412  
   2    34   1     0     2     2  0.667      0.467      0.008118  
   2    35   1     0     3     3  0.679      0.479      0.01218   
   2    36   1U    0     6     6  0.679      0.479      0.01827   
   2    36   2     0     2     2  0.684      0.484      0.004567  
   2    37   1     0     2     2  0.691      0.491      0.006850  
   2    38   1     0     5     5  0.701      0.501      0.01027   
   2    39   1     0     3     3  0.711      0.511      0.01027   
   2    40   1     0     3     3  0.722      0.522      0.01027   
   2    41   1     0     4     4  0.737      0.537      0.01541   
   2    42   1U    0     4     4  0.737      0.537      0.02312   
   2    42   2     0     2     2  0.743      0.543      0.005780  
   2    43   1U    0     9     9  0.743      0.543      0.008669  
   2    43   2     0     2     2  0.745      0.545      0.002167  
   2    44   1     0     2     2  0.748      0.548      0.003251  
   2    45   1     0     2     2  0.753      0.553      0.004876  
   2    46   1     0     2     2  0.760      0.560      0.007315  
   2    47   1     0     3     3  0.771      0.571      0.01097   
   2    48   1     0     4     4  0.788      0.588      0.01646   
   2    49   1U    0     5     5  0.788      0.588      0.02469   
   2    49   2     0     5     5  0.794      0.594      0.006172  
   2    50   1     0     4     4  0.800      0.600      0.006172  
   2    51   1     0     2     2  0.806      0.606      0.006172  
   2    52   1     0     3     3  0.816      0.616      0.009258  
   2    53   1     0     3     3  0.829      0.629      0.01389   
   2    54   1U    0     4     4  0.829      0.629      0.02083   
   2    54   2     0     2     2  0.835      0.635      0.005207  
   2    55   1     0     5     5  0.842      0.642      0.007811  
   2    56   1     0     6     6  0.850      0.650      0.007811  
   2    57   1     0     4     4  0.858      0.658      0.007811  
   2    58   1     0     3     3  0.866      0.666      0.007811  
   2    59   1     0     5     5  0.878      0.678      0.01172   
   2    60   1U    0     6     6  0.878      0.678      0.01172   
   2    60   2     0     2     2  0.881      0.681      0.002929  
   2    61   1     0     2     2  0.883      0.683      0.002929  
   2    62   1     0     2     2  0.888      0.688      0.004394  
   2    63   1     0     2     2  0.894      0.694      0.006591  
   2    64   1U    0     4     4  0.894      0.694      0.009886  
   2    64   2     0     2     2  0.897      0.697      0.002472  
   2    65   1     0     2     2  0.901      0.701      0.003707  
   2    66   1     0     2     2  0.906      0.706      0.005561  
   2    67   1     0     2     2  0.915      0.715      0.008341  
   2    68   1     0     5     5  0.927      0.727      0.01251   
   2    69   1     0     4     4  0.940      0.740      0.01251   
   2    70   1U    0     5     5  0.940      0.740      0.01251   
   2    70   2     0     4     4  0.943      0.743      0.003128  
   2    71   1     0     2     2  0.947      0.747      0.004692  
   2    72   1     0     3     3  0.954      0.754      0.007038  
   2    73   1U    0     5     5  0.954      0.754      0.01056   
   2    73   2     0     1     1  0.957      0.757      0.002639  
   2    74   1     0     2     2  0.961      0.761      0.003959  
   2    75   1     0     3     3  0.967      0.767      0.005938  
   2    76   1U    0     7     7  0.967      0.767      0.008907  
   2    76   2     0     2     2  0.969      0.769      0.002227  
   2    77   1     0     2     2  0.973      0.773      0.003340  
   2    78   1     0     3     3  0.978      0.778      0.005010  
   2    79   1     0     2     2  0.985      0.785      0.007516  
   2    80   1     0     5     5  0.996      0.796      0.01127   
   2    81   1     0    10    10  1.01       0.808      0.01127   
   2    82   1     0     4     4  1.02       0.819      0.01127   
   2    83   1     0     7     7  1.03       0.830      0.01127   
   2    84   1U    0     6     6  1.03       0.830      0.01127   
   2    84   2     0     2     2  1.03       0.833      0.002818  
   2    85   1     0     2     2  1.04       0.836      0.002818  
   2    86   1     0     3     3  1.04       0.840      0.004228  
   2    87   1     0     3     3  1.05       0.846      0.006341  
   2    88   1     0     5     5  1.06       0.856      0.009512  
   2    89   1U    0     5     5  1.06       0.856      0.009512  
   2    89   2     0     2     2  1.06       0.858      0.002378  
   2    90   1     0     2     2  1.06       0.861      0.002378  
   2    91   1     0     2     2  1.06       0.864      0.003567  
   2    92   1U    0     4     4  1.06       0.864      0.005351  
   2    92   2     0     2     2  1.07       0.866      0.001338  
   2    93   1     0     2     2  1.07       0.868      0.002006  
   2    94   1     0     3     3  1.07       0.871      0.003010  
   2    95   1     0     2     2  1.08       0.875      0.004514  
   2    96   1     0     4     4  1.08       0.882      0.006772  
   2    97   1     0     4     4  1.09       0.892      0.01016   
   2    98   1U    0     6     6  1.09       0.892      0.01524   
   2    98   2     0     3     3  1.10       0.896      0.003809  
   2    99   1     0     3     3  1.10       0.902      0.005714  
   2   100   1     0     3     3  1.11       0.910      0.008570  
   2   101   1     0     5     5  1.12       0.923      0.01286   
   2   102   1U    0     9     9  1.12       0.923      0.01286   
   2   102   2     0     2     2  1.13       0.926      0.003214  
   2   103   1     0     2     2  1.13       0.929      0.003214  
   2   104   1     0     3     3  1.13       0.934      0.004821  
   2   105   1U    0     4     4  1.13       0.934      0.007231  
   2   105   2     0     1     1  1.14       0.936      0.001808  
   2   106   1     0     2     2  1.14       0.939      0.002712  
   2   107   1U    0     4     4  1.14       0.939      0.004068  
   2   107   2U    0     5     5  1.14       0.939      0.001017  
   2   107   3     0     3     3  1.14       0.939      0.0002542 
   2   108   1     0     1     1  1.14       0.939      0.0003813 
   2   109   1     0     2     2  1.14       0.940      0.0005720 
   2   110   1     0     4     4  1.14       0.941      0.0008580 
   2   111   1     0     2     2  1.14       0.942      0.001287  
   2   112   1U    0     6     6  1.14       0.942      0.001931  
   2   112   2     0     1     1  1.14       0.943      0.0004826 
   2   113   1     0     1     1  1.14       0.943      0.0007240 
   2   114   1     0     2     2  1.14       0.944      0.001086  
   2   115   1     0     1     1  1.15       0.946      0.001629  
   2   116   1     0     5     5  1.15       0.948      0.002443  
   2   117   1     0     3     3  1.15       0.951      0.002443  
   2   118   1U    0     4     4  1.15       0.951      0.002443  
   2   118   2     0     1     1  1.15       0.951      0.0006108 
   2   119   1     0     1     1  1.15       0.952      0.0009163 
   2   120   1     0     2     2  1.15       0.954      0.001374  
   2   121   1     0     2     2  1.16       0.956      0.002062  
   2   122   1     0     2     2  1.16       0.959      0.003092  
   2   123   1     0     3     3  1.16       0.964      0.004639  
   2   124   1U    0     5     5  1.16       0.964      0.006958  
   2   124   2     0     2     2  1.17       0.965      0.001739  
   2   125   1     0     2     2  1.17       0.968      0.002609  
   2   126   1     0     2     2  1.17       0.972      0.003914  
   2   127   1     0     4     4  1.18       0.978      0.005871  
   2   128   1U    0     4     4  1.18       0.978      0.008806  
   2   128   2     0     3     3  1.18       0.980      0.002201  
   2   129   1U    0     6     6  1.18       0.980      0.003302  
   2   129   2     0     1     1  1.18       0.981      0.0008256 
   2   130   1U    0     5     5  1.18       0.981      0.001238  
   2   130   2     0     1     1  1.18       0.981      0.0003096 
   2   131   1     0     1     1  1.18       0.981      0.0004644 
   2   132   1     0     4     4  1.18       0.982      0.0006966 
   2   133   1     0     2     2  1.18       0.983      0.001045  
   2   134   1     0     3     3  1.18       0.985      0.001567  
   2   135   1     0     2     2  1.19       0.987      0.002351  
   2   136   1     0     2     2  1.19       0.991      0.003526  
   2   137   1U    0     8     8  1.19       0.991      0.005290  
   2   137   2     0     2     2  1.19       0.992      0.001322  
   2   138   1     0     2     2  1.19       0.994      0.001984  
   2   139   1     0     5     5  1.20       0.997      0.002975  
   2   140   1U    0     6     6  1.20       0.997      0.002975  
   2   140   2     0     2     2  1.20       0.998      0.0007438 
   2   141   1     0     1     1  1.20       0.998      0.0007438 
   2   142   1     0     8     8  1.20       1.00       0.001116  
   2   143   1     0     2     2  1.20       1.00       0.0004422 
                          
 THE ANALYSIS HAS COMPLETED SUCCESSFULLY
