 Abaqus/Standard 2022                  DATE 30-3ÔÂ-2025 TIME 02:04:47
 SUMMARY OF JOB INFORMATION:
 STEP  INC ATT SEVERE EQUIL TOTAL  TOTAL      STEP       INC OF       DOF    IF
               DISCON ITERS ITERS  TIME/    TIME/LPF    TIME/LPF    MONITOR RIKS
               ITERS               FREQ
   1     1   1     0     1     1  0.0100     0.0100     0.01000   
   1     2   1     0     1     1  0.0200     0.0200     0.01000   
   1     3   1     0     1     1  0.0350     0.0350     0.01500   
   1     4   1     0     1     1  0.0575     0.0575     0.02250   
   1     5   1     0     1     1  0.0912     0.0912     0.03375   
   1     6   1     0     1     1  0.142      0.142      0.05063   
   1     7   1     0     1     1  0.200      0.200      0.05813   
   2     1   1     0     1     1  0.210      0.0100     0.01000   
   2     2   1     0     1     1  0.220      0.0200     0.01000   
   2     3   1     0     1     1  0.235      0.0350     0.01500   
   2     4   1     0     1     1  0.258      0.0575     0.02250   
   2     5   1     0     1     1  0.291      0.0912     0.03375   
   2     6   1     0     5     5  0.342      0.142      0.05063   
   2     7   1U    0     4     4  0.342      0.142      0.05063   
   2     7   2     0     3     3  0.355      0.155      0.01266   
   2     8   1     0     2     2  0.367      0.167      0.01266   
   2     9   1U    0     4     4  0.367      0.167      0.01898   
   2     9   2     0     2     2  0.372      0.172      0.004746  
   2    10   1     0     2     2  0.379      0.179      0.007119  
   2    11   1     0     6     6  0.390      0.190      0.01068   
   2    12   1     0     4     4  0.400      0.200      0.01068   
   2    13   1     0     5     5  0.411      0.211      0.01068   
   2    14   1     0     4     4  0.422      0.222      0.01068   
   2    15   1     0     4     4  0.432      0.232      0.01068   
   2    16   1     0     7     7  0.448      0.248      0.01602   
   2    17   1     0     5     5  0.464      0.264      0.01602   
   2    18   1     0     6     6  0.481      0.281      0.01602   
   2    19   1     0     4     4  0.497      0.297      0.01602   
   2    20   1     0     4     4  0.513      0.313      0.01602   
   2    21   1     0     6     6  0.537      0.337      0.02403   
   2    22   1     0     5     5  0.561      0.361      0.02403   
   2    23   1U    0     5     5  0.561      0.361      0.02403   
   2    23   2     0     2     2  0.567      0.367      0.006007  
   2    24   1     0     2     2  0.573      0.373      0.006007  
   2    25   1     0     2     2  0.582      0.382      0.009010  
   2    26   1     0     3     3  0.595      0.395      0.01352   
   2    27   1     0     4     4  0.615      0.415      0.02027   
   2    28   1U    0     4     4  0.615      0.415      0.03041   
   2    28   2     0     3     3  0.623      0.423      0.007602  
   2    29   1     0     3     3  0.634      0.434      0.01140   
   2    30   1     0     5     5  0.652      0.452      0.01711   
   2    31   1     0     3     3  0.669      0.469      0.01711   
   2    32   1     0     5     5  0.686      0.486      0.01711   
   2    33   1U    0     4     4  0.686      0.486      0.01711   
   2    33   2     0     2     2  0.690      0.490      0.004276  
   2    34   1     0     2     2  0.694      0.494      0.004276  
   2    35   1     0     2     2  0.701      0.501      0.006414  
   2    36   1     0     3     3  0.710      0.510      0.009622  
   2    37   1     0     5     5  0.725      0.525      0.01443   
   2    38   1     0     4     4  0.739      0.539      0.01443   
   2    39   1     0     4     4  0.754      0.554      0.01443   
   2    40   1U    0     4     4  0.754      0.554      0.02165   
   2    40   2     0     2     2  0.759      0.559      0.005412  
   2    41   1     0     4     4  0.767      0.567      0.008118  
   2    42   1U    0     9     9  0.767      0.567      0.01218   
   2    42   2     0     1     1  0.770      0.570      0.003044  
   2    43   1U    0    10    10  0.770      0.570      0.004567  
   2    43   2     0     1     1  0.771      0.571      0.001142  
   2    44   1     0     1     1  0.773      0.573      0.001712  
   2    45   1     0     3     3  0.776      0.576      0.002569  
   2    46   1     0     3     3  0.779      0.579      0.003853  
   2    47   1     0     2     2  0.785      0.585      0.005780  
   2    48   1     0     3     3  0.794      0.594      0.008669  
   2    49   1     0     4     4  0.807      0.607      0.01300   
   2    50   1U    0     7     7  0.807      0.607      0.01951   
   2    50   2     0     2     2  0.812      0.612      0.004876  
   2    51   1U    0     9     9  0.812      0.612      0.007315  
   2    51   2     0     2     2  0.814      0.614      0.001829  
   2    52   1     0     2     2  0.816      0.616      0.002743  
   2    53   1     0     3     3  0.820      0.620      0.004115  
   2    54   1     0     4     4  0.827      0.627      0.006172  
   2    55   1     0     4     4  0.836      0.636      0.009258  
   2    56   1U    0     4     4  0.836      0.636      0.01389   
   2    56   2     0     2     2  0.839      0.639      0.003472  
   2    57   1     0     3     3  0.845      0.645      0.005207  
   2    58   1     0     2     2  0.852      0.652      0.007811  
   2    59   1     0     6     6  0.864      0.664      0.01172   
   2    60   1U    0     5     5  0.864      0.664      0.01172   
   2    60   2     0     2     2  0.867      0.667      0.002929  
   2    61   1     0     1     1  0.870      0.670      0.002929  
   2    62   1     0     6     6  0.874      0.674      0.004394  
   2    63   1     0     2     2  0.879      0.679      0.004394  
   2    64   1     0     2     2  0.883      0.683      0.004394  
   2    65   1     0     2     2  0.890      0.690      0.006591  
   2    66   1     0     2     2  0.900      0.700      0.009886  
   2    67   1U    0     4     4  0.900      0.700      0.01483   
   2    67   2     0     2     2  0.903      0.703      0.003707  
   2    68   1     0     2     2  0.909      0.709      0.005561  
   2    69   1U    0     6     6  0.909      0.709      0.008341  
   2    69   2     0     2     2  0.911      0.711      0.002085  
   2    70   1     0     2     2  0.914      0.714      0.003128  
   2    71   1     0     3     3  0.919      0.719      0.004692  
   2    72   1     0     2     2  0.926      0.726      0.007038  
   2    73   1     0     3     3  0.936      0.736      0.01056   
   2    74   1U    0     8     8  0.936      0.736      0.01584   
   2    74   2U    0     5     5  0.936      0.736      0.003959  
   2    74   3     0     2     2  0.937      0.737      0.0009897 
   2    75   1     0     2     2  0.939      0.739      0.001485  
   2    76   1     0     1     1  0.941      0.741      0.002227  
   2    77   1     0     2     2  0.944      0.744      0.003340  
   2    78   1     0     2     2  0.949      0.749      0.005010  
   2    79   1     0     3     3  0.957      0.757      0.007516  
   2    80   1U    0     7     7  0.957      0.757      0.01127   
   2    80   2     0     2     2  0.960      0.760      0.002818  
   2    81   1     0     2     2  0.964      0.764      0.004228  
   2    82   1     0     2     2  0.970      0.770      0.006341  
   2    83   1     0     3     3  0.980      0.780      0.009512  
   2    84   1     0     6     6  0.994      0.794      0.01427   
   2    85   1     0     4     4  1.01       0.808      0.01427   
   2    86   1     0     4     4  1.02       0.823      0.01427   
   2    87   1     0     5     5  1.04       0.844      0.02140   
   2    88   1U    0     5     5  1.04       0.844      0.02140   
   2    88   2     0     5     5  1.05       0.849      0.005351  
   2    89   1     0     3     3  1.05       0.855      0.005351  
   2    90   1     0     2     2  1.06       0.860      0.005351  
   2    91   1     0     3     3  1.07       0.868      0.008026  
   2    92   1     0     3     3  1.08       0.880      0.01204   
   2    93   1U    0     5     5  1.08       0.880      0.01806   
   2    93   2U    0     5     5  1.08       0.880      0.004514  
   2    93   3     0     3     3  1.08       0.881      0.001129  
   2    94   1     0     1     1  1.08       0.883      0.001693  
   2    95   1     0     5     5  1.09       0.886      0.002539  
   2    96   1     0     2     2  1.09       0.888      0.002539  
   2    97   1     0     1     1  1.09       0.891      0.002539  
   2    98   1     0     2     2  1.09       0.894      0.003809  
   2    99   1     0     3     3  1.10       0.900      0.005714  
   2   100   1     0     6     6  1.11       0.909      0.008570  
   2   101   1     0     4     4  1.12       0.917      0.008570  
   2   102   1     0     6     6  1.13       0.926      0.008570  
   2   103   1     0     4     4  1.13       0.934      0.008570  
   2   104   1     0     3     3  1.14       0.943      0.008570  
   2   105   1     0     4     4  1.16       0.956      0.01286   
   2   106   1U    0     5     5  1.16       0.956      0.01928   
   2   106   2     0     3     3  1.16       0.961      0.004821  
   2   107   1     0     3     3  1.17       0.968      0.007231  
   2   108   1U    0     6     6  1.17       0.968      0.01085   
   2   108   2     0     2     2  1.17       0.971      0.002712  
   2   109   1     0     2     2  1.17       0.975      0.004068  
   2   110   1     0     2     2  1.18       0.981      0.006101  
   2   111   1     0     3     3  1.19       0.990      0.009152  
   2   112   1U    0     5     5  1.19       0.990      0.01006   
   2   112   2     0     2     2  1.19       0.992      0.002514  
   2   113   1U    0     5     5  1.19       0.992      0.003771  
   2   113   2     0     1     1  1.19       0.993      0.0009428 
   2   114   1     0     2     2  1.19       0.995      0.001414  
   2   115   1     0     2     2  1.20       0.997      0.002121  
   2   116   1     0     2     2  1.20       1.00       0.003064  
                          
 THE ANALYSIS HAS COMPLETED SUCCESSFULLY
