*Heading
** Job name: Job-SimplyBeam1 Model name: SimplyBeam1
** Generated by: Abaqus/CAE 2022
*Preprint, echo=NO, model=NO, history=NO, contact=NO
**
** PARTS
**
*Part, name=Beam
*Node
      1,        -100.,        -150.,         500.
      2,        -100.,        -150.,           0.
      3,           0.,        -150.,           0.
      4,           0.,        -150.,         500.
      5,        -100.,         150.,           0.
      6,           0.,         150.,           0.
      7,           0.,         150.,         500.
      8,        -100.,         150.,         500.
      9,           0.,           0.,           0.
     10,         100.,         150.,         500.
     11,         100.,         150.,           0.
     12,         100.,        -150.,           0.
     13,         100.,        -150.,         500.
     14,       -2300.,        -150.,         500.
     15,       -2300.,        -150.,           0.
     16,       -2300.,         150.,         500.
     17,       -2300.,         150.,           0.
     18,        2300.,        -150.,           0.
     19,        2300.,        -150.,         500.
     20,        2300.,         150.,           0.
** ... 7757 like lines cut
*Element, type=C3D8R
  1,   79,  629, 3548,  619,    1,   30,  601,   49
  2,  629,  630, 3549, 3548,   30,   31,  602,  601
  3,  630,  631, 3550, 3549,   31,   32,  603,  602
  4,  631,  632, 3551, 3550,   32,   33,  604,  603
  5,  632,  633, 3552, 3551,   33,   34,  605,  604
  6,  633,  634, 3553, 3552,   34,   35,  606,  605
  7,  634,  635, 3554, 3553,   35,   36,  607,  606
  8,  635,  636, 3555, 3554,   36,   37,  608,  607
  9,  636,  637, 3556, 3555,   37,   38,  609,  608
 10,  637,   84,  624, 3556,   38,    2,   39,  609
 11,  619, 3548,  674,   70,   49,  601,   48,    4
 12, 3548, 3549,  675,  674,  601,  602,   47,   48
 13, 3549, 3550,  676,  675,  602,  603,   46,   47
 14, 3550, 3551,  677,  676,  603,  604,   45,   46
 15, 3551, 3552,  678,  677,  604,  605,   44,   45
 16, 3552, 3553,  679,  678,  605,  606,   43,   44
 17, 3553, 3554,  680,  679,  606,  607,   42,   43
 18, 3554, 3555,  681,  680,  607,  608,   41,   42
 19, 3555, 3556,  682,  681,  608,  609,   40,   41
 20, 3556,  624,   81,  682,  609,   39,    3,   40
** ... 5980 like lines cut
*Nset, nset=All, generate
    1,  7777,     1
*Elset, elset=All, generate
    1,  6000,     1
*Nset, nset=MidPoint
 9,
*Elset, elset=_ToPads_S5, internal
 5815, 5816, 5817, 5818, 5819, 5820, 5875, 5876, 5877, 5878, 5879, 5880, 5935, 5936, 5937, 5938
 5939, 5940, 5995, 5996, 5997, 5998, 5999, 6000
*Elset, elset=_ToPads_S4, internal, generate
 5530,  5760,    10
*Surface, type=ELEMENT, name=ToPads
_ToPads_S5, S5
_ToPads_S4, S4
*Elset, elset=_ToLoad_S6, internal, generate
   1,  231,   10
*Surface, type=ELEMENT, name=ToLoad
_ToLoad_S6, S6
** Section: HmC30
*Solid Section, elset=All, material=C30
,
*End Part
**  
*Part, name=Pad
*Node
      1,         100.,         150.,          50.
      2,         100.,         125.,          50.
      3,         100.,         100.,          50.
      4,         100.,          75.,          50.
      5,         100.,          50.,          50.
      6,         100.,          25.,          50.
      7,         100.,           0.,          50.
      8,         100.,         -25.,          50.
      9,         100.,         -50.,          50.
     10,         100.,         -75.,          50.
     11,         100.,        -100.,          50.
     12,         100.,        -125.,          50.
     13,         100.,        -150.,          50.
     14,         100.,         150.,          25.
     15,         100.,         125.,          25.
     16,         100.,         100.,          25.
     17,         100.,          75.,          25.
     18,         100.,          50.,          25.
     19,         100.,          25.,          25.
     20,         100.,           0.,          25.
** ... 331 like lines cut
*Element, type=C3D8R
  1,  40,  41,  54,  53,   1,   2,  15,  14
  2,  41,  42,  55,  54,   2,   3,  16,  15
  3,  42,  43,  56,  55,   3,   4,  17,  16
  4,  43,  44,  57,  56,   4,   5,  18,  17
  5,  44,  45,  58,  57,   5,   6,  19,  18
  6,  45,  46,  59,  58,   6,   7,  20,  19
  7,  46,  47,  60,  59,   7,   8,  21,  20
  8,  47,  48,  61,  60,   8,   9,  22,  21
  9,  48,  49,  62,  61,   9,  10,  23,  22
 10,  49,  50,  63,  62,  10,  11,  24,  23
 11,  50,  51,  64,  63,  11,  12,  25,  24
 12,  51,  52,  65,  64,  12,  13,  26,  25
 13,  53,  54,  67,  66,  14,  15,  28,  27
 14,  54,  55,  68,  67,  15,  16,  29,  28
 15,  55,  56,  69,  68,  16,  17,  30,  29
 16,  56,  57,  70,  69,  17,  18,  31,  30
 17,  57,  58,  71,  70,  18,  19,  32,  31
 18,  58,  59,  72,  71,  19,  20,  33,  32
 19,  59,  60,  73,  72,  20,  21,  34,  33
 20,  60,  61,  74,  73,  21,  22,  35,  34
** ... 172 like lines cut
*Node
    352,           0.,           0.,           0.
*Nset, nset=Pad-RefPt_, internal
352, 
*Nset, nset=All, generate
   1,  351,    1
*Elset, elset=All, generate
   1,  192,    1
*Elset, elset=_Top_S3, internal
   1,   2,   3,   4,   5,   6,   7,   8,   9,  10,  11,  12,  25,  26,  27,  28
  29,  30,  31,  32,  33,  34,  35,  36,  49,  50,  51,  52,  53,  54,  55,  56
  57,  58,  59,  60,  73,  74,  75,  76,  77,  78,  79,  80,  81,  82,  83,  84
  97,  98,  99, 100, 101, 102, 103, 104, 105, 106, 107, 108, 121, 122, 123, 124
 125, 126, 127, 128, 129, 130, 131, 132, 145, 146, 147, 148, 149, 150, 151, 152
 153, 154, 155, 156, 169, 170, 171, 172, 173, 174, 175, 176, 177, 178, 179, 180
*Surface, type=ELEMENT, name=Top
_Top_S3, S3
*Elset, elset=_Bottom_S5, internal
  13,  14,  15,  16,  17,  18,  19,  20,  21,  22,  23,  24,  37,  38,  39,  40
  41,  42,  43,  44,  45,  46,  47,  48,  61,  62,  63,  64,  65,  66,  67,  68
  69,  70,  71,  72,  85,  86,  87,  88,  89,  90,  91,  92,  93,  94,  95,  96
 109, 110, 111, 112, 113, 114, 115, 116, 117, 118, 119, 120, 133, 134, 135, 136
 137, 138, 139, 140, 141, 142, 143, 144, 157, 158, 159, 160, 161, 162, 163, 164
 165, 166, 167, 168, 181, 182, 183, 184, 185, 186, 187, 188, 189, 190, 191, 192
*Surface, type=ELEMENT, name=Bottom
_Bottom_S5, S5
** Section: HmRigidSteel
*Solid Section, elset=All, material=RigidSteel
,
*End Part
**  
*Part, name=ReinMesh
*Node
      1,       -2200.,         125.,         450.
      2,       -2200.,        -125.,         450.
      3,       -2200.,        -125.,           0.
      4,       -2400.,        -125.,           0.
      5,       -2400.,           0.,           0.
      6,       -2475.,           0.,           0.
      7,       -2200.,         125.,           0.
      8,       -2200.,           0.,           0.
      9,       -2400.,        -125.,         450.
     10,       -2400.,         125.,         450.
     11,       -2400.,         125.,           0.
     12,       -2000.,        -125.,           0.
     13,       -2475.,        -125.,         450.
     14,       -2000.,        -125.,         450.
     15,       -2475.,         125.,         450.
     16,       -2475.,         125.,           0.
     17,       -1800.,        -125.,           0.
     18,       -2000.,           0.,           0.
     19,       -2475.,        -125.,           0.
     20,       -2000.,         125.,         450.
** ... 115 like lines cut
*Element, type=T3D2
1, 2, 1
2, 3, 2
3, 4, 3
4, 5, 4
5, 6, 5
6, 1, 7
7, 7, 8
8, 8, 3
 9, 9, 2
10,  9, 10
11, 10, 11
12, 11,  5
13,  3, 12
14, 4, 9
15, 13,  9
16, 5, 8
17, 10,  1
18, 11,  7
19,  2, 14
20, 15, 10
** ... 235 like lines cut
*Nset, nset=BottomRein
   3,   4,   5,   6,   7,   8,  11,  12,  16,  17,  18,  19,  21,  23,  24,  26
  28,  29,  31,  33,  34,  36,  38,  39,  41,  43,  44,  46,  48,  49,  51,  53
  54,  56,  58,  59,  61,  63,  64,  66,  68,  69,  71,  73,  74,  76,  78,  79
  81,  83,  84,  86,  88,  89,  91,  93,  94,  96,  98,  99, 101, 103, 104, 106
 108, 109, 111, 113, 114, 116, 118, 119, 121, 123, 124, 126, 128, 129, 131, 133
 135,
*Elset, elset=BottomRein
   3,   5,  13,  16,  18,  21,  22,  24,  25,  27,  32,  34,  37,  42,  44,  47
  52,  54,  57,  62,  64,  67,  72,  74,  77,  82,  84,  87,  92,  94,  97, 102
 104, 107, 112, 114, 117, 122, 124, 127, 132, 134, 137, 142, 144, 147, 152, 154
 157, 162, 164, 167, 172, 174, 177, 182, 184, 187, 192, 194, 197, 202, 204, 207
 212, 214, 217, 222, 224, 227, 232, 234, 237, 242, 244, 247, 253, 255
*Nset, nset=TopRein
   1,   2,   9,  10,  13,  14,  15,  20,  22,  25,  27,  30,  32,  35,  37,  40
  42,  45,  47,  50,  52,  55,  57,  60,  62,  65,  67,  70,  72,  75,  77,  80
  82,  85,  87,  90,  92,  95,  97, 100, 102, 105, 107, 110, 112, 115, 117, 120
 122, 125, 127, 130, 132, 134
*Elset, elset=TopRein
   9,  15,  17,  19,  20,  26,  28,  36,  38,  46,  48,  56,  58,  66,  68,  76
  78,  86,  88,  96,  98, 106, 108, 116, 118, 126, 128, 136, 138, 146, 148, 156
 158, 166, 168, 176, 178, 186, 188, 196, 198, 206, 208, 216, 218, 226, 228, 236
 238, 246, 248, 254
*Nset, nset=Stirrups
   1,   2,   3,   4,   5,   7,   8,   9,  10,  11,  12,  14,  17,  18,  20,  21
  22,  23,  24,  25,  26,  27,  28,  29,  30,  31,  32,  33,  34,  35,  36,  37
  38,  39,  40,  41,  42,  43,  44,  45,  46,  47,  48,  49,  50,  51,  52,  53
  54,  55,  56,  57,  58,  59,  60,  61,  62,  63,  64,  65,  66,  67,  68,  69
  70,  71,  72,  73,  74,  75,  76,  77,  78,  79,  80,  81,  82,  83,  84,  85
  86,  87,  88,  89,  90,  91,  92,  93,  94,  95,  96,  97,  98,  99, 100, 101
 102, 103, 104, 105, 106, 107, 108, 109, 110, 111, 112, 113, 114, 115, 116, 117
 118, 119, 120, 121, 122, 123, 124, 125, 126, 127, 129, 130, 131
*Elset, elset=Stirrups
   1,   2,   4,   6,   7,   8,  10,  11,  12,  14,  23,  29,  30,  31,  33,  35
  39,  40,  41,  43,  45,  49,  50,  51,  53,  55,  59,  60,  61,  63,  65,  69
  70,  71,  73,  75,  79,  80,  81,  83,  85,  89,  90,  91,  93,  95,  99, 100
 101, 103, 105, 109, 110, 111, 113, 115, 119, 120, 121, 123, 125, 129, 130, 131
 133, 135, 139, 140, 141, 143, 145, 149, 150, 151, 153, 155, 159, 160, 161, 163
 165, 169, 170, 171, 173, 175, 179, 180, 181, 183, 185, 189, 190, 191, 193, 195
 199, 200, 201, 203, 205, 209, 210, 211, 213, 215, 219, 220, 221, 223, 225, 229
 230, 231, 233, 235, 239, 240, 241, 243, 245, 249, 250, 251, 252
*Nset, nset=All, generate
   1,  135,    1
*Elset, elset=All, generate
   1,  255,    1
** Section: TrD8HPB300
*Solid Section, elset=Stirrups, material=HPB300
50.2655,
** Section: TrD18HRB400
*Solid Section, elset=BottomRein, material=HRB400
254.469,
** Section: TrD12HRB400
*Solid Section, elset=TopRein, material=HRB400
113.097,
*End Part
**  
**
** ASSEMBLY
**
*Assembly, name=Assembly
**  
*Instance, name=Beam1, part=Beam
*End Instance
**  
*Instance, name=ReinMesh1, part=ReinMesh
          0.,           0.,          25.
*End Instance
**  
*Instance, name=PadL, part=Pad
       2400.,           0.,         -50.
*End Instance
**  
*Instance, name=PadR, part=Pad
      -2400.,           0.,         -50.
*End Instance
**  
*Instance, name=PadT, part=Pad
          0.,           0.,         550.
          0.,           0.,         550.,           0.,           1.,         550.,         180.
*End Instance
**  
*Nset, nset=RpL, instance=PadL
 352,
*Nset, nset=RpR, instance=PadR
 352,
*Nset, nset=RpT, instance=PadT
 352,
*Nset, nset=_PickedSet74, internal, instance=ReinMesh1, generate
   1,  135,    1
*Elset, elset=_PickedSet74, internal, instance=ReinMesh1, generate
   1,  255,    1
*Nset, nset=_PickedSet75, internal, instance=Beam1, generate
    1,  7777,     1
*Elset, elset=_PickedSet75, internal, instance=Beam1, generate
    1,  6000,     1
*Elset, elset=_BCPads_S3, internal, instance=PadL
   1,   2,   3,   4,   5,   6,   7,   8,   9,  10,  11,  12,  25,  26,  27,  28
  29,  30,  31,  32,  33,  34,  35,  36,  49,  50,  51,  52,  53,  54,  55,  56
  57,  58,  59,  60,  73,  74,  75,  76,  77,  78,  79,  80,  81,  82,  83,  84
  97,  98,  99, 100, 101, 102, 103, 104, 105, 106, 107, 108, 121, 122, 123, 124
 125, 126, 127, 128, 129, 130, 131, 132, 145, 146, 147, 148, 149, 150, 151, 152
 153, 154, 155, 156, 169, 170, 171, 172, 173, 174, 175, 176, 177, 178, 179, 180
*Elset, elset=_BCPads_S3, internal, instance=PadR
   1,   2,   3,   4,   5,   6,   7,   8,   9,  10,  11,  12,  25,  26,  27,  28
  29,  30,  31,  32,  33,  34,  35,  36,  49,  50,  51,  52,  53,  54,  55,  56
  57,  58,  59,  60,  73,  74,  75,  76,  77,  78,  79,  80,  81,  82,  83,  84
  97,  98,  99, 100, 101, 102, 103, 104, 105, 106, 107, 108, 121, 122, 123, 124
 125, 126, 127, 128, 129, 130, 131, 132, 145, 146, 147, 148, 149, 150, 151, 152
 153, 154, 155, 156, 169, 170, 171, 172, 173, 174, 175, 176, 177, 178, 179, 180
*Surface, type=ELEMENT, name=BCPads
_BCPads_S3, S3
*Elset, elset=_LoadPad_S3, internal, instance=PadT
   1,   2,   3,   4,   5,   6,   7,   8,   9,  10,  11,  12,  25,  26,  27,  28
  29,  30,  31,  32,  33,  34,  35,  36,  49,  50,  51,  52,  53,  54,  55,  56
  57,  58,  59,  60,  73,  74,  75,  76,  77,  78,  79,  80,  81,  82,  83,  84
  97,  98,  99, 100, 101, 102, 103, 104, 105, 106, 107, 108, 121, 122, 123, 124
 125, 126, 127, 128, 129, 130, 131, 132, 145, 146, 147, 148, 149, 150, 151, 152
 153, 154, 155, 156, 169, 170, 171, 172, 173, 174, 175, 176, 177, 178, 179, 180
*Surface, type=ELEMENT, name=LoadPad
_LoadPad_S3, S3
** Constraint: Cg-RpL
*Coupling, constraint name=Cg-RpL, ref node=RpL, surface=PadL.Bottom
*Kinematic
** Constraint: Cg-RpR
*Coupling, constraint name=Cg-RpR, ref node=RpR, surface=PadR.Bottom
*Kinematic
** Constraint: Cg-RpT
*Coupling, constraint name=Cg-RpT, ref node=RpT, surface=PadT.Bottom
*Kinematic
** Constraint: Em-ReinMeshBeam
*Embedded Element, host elset=_PickedSet75
_PickedSet74
** Constraint: Tie-BeamPads
*Tie, name=Tie-BeamPads, adjust=yes
BCPads, Beam1.ToPads
** Constraint: Tie-BeamPadsT
*Tie, name=Tie-BeamPadsT, adjust=yes
LoadPad, Beam1.ToLoad
*End Assembly
** 
** MATERIALS
** 
*Material, name=C30
*Density
 2.4e-09,
*Elastic
30000., 0.2
*Concrete Damaged Plasticity
30.,    0.1,   1.16, 0.6667,  0.005
*Concrete Compression Hardening
  11.7112,       0.
  14.4517, 0.000107
  16.5436, 0.000184
  18.0543,  0.00028
  19.0766, 0.000393
  19.7068, 0.000519
   20.033, 0.000655
  20.1296, 0.000799
  19.6441, 0.001109
  18.5505, 0.001439
  17.2369, 0.001776
  15.9086, 0.002114
  14.6589, 0.002449
  13.5228,  0.00278
  12.5065, 0.003108
  11.6034, 0.003431
  10.8025, 0.003751
  10.0915, 0.004067
  9.45879, 0.004381
  8.89381, 0.004693
** ... 30 like lines cut
*Concrete Tension Stiffening
  2.01019,       0.
  1.88207,  5.1e-05
  1.68982,  7.6e-05
  1.51084, 0.000101
  1.35906, 0.000125
  1.23317, 0.000148
  1.12872, 0.000171
  1.04137, 0.000193
 0.967562, 0.000214
 0.904509, 0.000235
 0.850086, 0.000256
 0.802662, 0.000276
 0.760974, 0.000297
 0.724037, 0.000317
 0.691076, 0.000337
 0.661473, 0.000357
  0.59911, 0.000406
 0.549259, 0.000455
 0.508406, 0.000504
 0.474243, 0.000553
** ... 23 like lines cut
*Concrete Compression Damage
      0.,       0.
 0.09548, 0.000107
 0.13446, 0.000184
 0.17465,  0.00028
  0.2146, 0.000393
 0.25334, 0.000519
 0.29029, 0.000655
 0.32514, 0.000799
 0.39151, 0.001109
 0.45263, 0.001439
 0.50652, 0.001776
 0.55309, 0.002114
 0.59308, 0.002449
 0.62741,  0.00278
 0.65699, 0.003108
 0.68261, 0.003431
 0.70494, 0.003751
 0.72453, 0.004067
 0.74181, 0.004381
 0.75715, 0.004693
** ... 30 like lines cut
*Concrete Tension Damage
      0.,       0.
 0.25729,  5.1e-05
 0.34845,  7.6e-05
 0.42372, 0.000101
 0.48469, 0.000125
 0.53433, 0.000148
 0.57523, 0.000171
 0.60937, 0.000193
 0.63824, 0.000214
 0.66295, 0.000235
 0.68433, 0.000256
 0.70301, 0.000276
 0.71946, 0.000297
 0.73407, 0.000317
 0.74712, 0.000337
 0.75886, 0.000357
 0.78364, 0.000406
 0.80347, 0.000455
 0.81973, 0.000504
 0.83331, 0.000553
** ... 23 like lines cut
*Material, name=HPB300
*Density
 7.85e-09,
*Elastic
210000., 0.3
*Plastic
300.,  0.
420., 0.1
*Material, name=HRB400
*Density
 7.85e-09,
*Elastic
200000., 0.3
*Plastic
400.,  0.
540., 0.1
*Material, name=RigidSteel
*Density
 7.85e-09,
*Elastic
210000., 0.3
** 
** BOUNDARY CONDITIONS
** 
** Name: BC-L Type: /
*Boundary
RpL, 1, 1
RpL, 2, 2
RpL, 3, 3
RpL, 4, 4
RpL, 6, 6
** Name: BC-R Type: /
*Boundary
RpR, 2, 2
RpR, 3, 3
RpR, 4, 4
RpR, 6, 6
** ----------------------------------------------------------------
** 
** STEP: Step-1
** 
*Step, name=Step-1, nlgeom=NO, inc=10000
*Static
0.01, 0.2, 1e-06, 0.2
** 
** LOADS
** 
** Name: Load-G   Type: Gravity
*Dload
, GRAV, 9810., 0., 0., -1.
** 
** OUTPUT REQUESTS
** 
*Restart, write, frequency=0
** 
** FIELD OUTPUT: F-Output-1
** 
*Output, field
*Node Output
U, 
*Element Output, directions=YES
DAMAGEC, DAMAGET, E, S
** 
** HISTORY OUTPUT: H-Output-1
** 
*Output, history
*Node Output, nset=Beam1.MidPoint
U3, 
** 
** HISTORY OUTPUT: H-Output-2
** 
*Node Output, nset=RpL
RF3, 
** 
** HISTORY OUTPUT: H-Output-3
** 
*Node Output, nset=RpR
RF3, 
*End Step
** ----------------------------------------------------------------
** 
** STEP: Step-2
** 
*Step, name=Step-2, nlgeom=NO, inc=10000
*Static
0.01, 1., 1e-06, 1.
** 
** LOADS
** 
** Name: Load-CF   Type: Concentrated force
*Cload
RpT, 3, -180000.
** 
** OUTPUT REQUESTS
** 
*Restart, write, frequency=0
** 
** FIELD OUTPUT: F-Output-1
** 
*Output, field
*Node Output
U, 
*Element Output, directions=YES
DAMAGEC, DAMAGET, E, S
** 
** HISTORY OUTPUT: H-Output-1
** 
*Output, history
*Node Output, nset=Beam1.MidPoint
U3, 
** 
** HISTORY OUTPUT: H-Output-2
** 
*Node Output, nset=RpL
RF3, 
** 
** HISTORY OUTPUT: H-Output-3
** 
*Node Output, nset=RpR
RF3, 
*End Step
