1

   Abaqus 2022                                  Date 30-3ÔÂ-2025   Time 02:18:24
   For use by Supplied by Team-SolidSQUAD under license from Dassault Systemes or its subsidiary.

                                                                                 
                                                                                 
 STEP    1     INCREMENT     1     STEP TIME    0.00    


                        S T E P       1     S T A T I C   A N A L Y S I S


                                                                                          

     AUTOMATIC TIME CONTROL WITH -
          A SUGGESTED INITIAL TIME INCREMENT OF                1.000E-02
          AND A TOTAL TIME PERIOD OF                           0.200    
          THE MINIMUM TIME INCREMENT ALLOWED IS                1.000E-06
          THE MAXIMUM TIME INCREMENT ALLOWED IS                0.200    

     LINEAR EQUATION SOLVER TYPE         DIRECT SPARSE

 CONVERGENCE TOLERANCE PARAMETERS FOR FORCE    
     CRITERION FOR RESIDUAL FORCE     FOR A NONLINEAR PROBLEM          5.000E-03
     CRITERION FOR DISP.    CORRECTION IN A NONLINEAR PROBLEM          1.000E-02
     INITIAL VALUE OF TIME AVERAGE FORCE                               1.000E-02
     AVERAGE FORCE     IS TIME AVERAGE FORCE    
     ALTERNATE CRIT. FOR RESIDUAL FORCE     FOR A NONLINEAR PROBLEM    2.000E-02
     CRITERION FOR ZERO FORCE     RELATIVE TO TIME AVRG. FORCE         1.000E-05
     CRITERION FOR RESIDUAL FORCE     WHEN THERE IS ZERO FLUX          1.000E-05
     CRITERION FOR DISP.    CORRECTION WHEN THERE IS ZERO FLUX         1.000E-03
     CRITERION FOR RESIDUAL FORCE     FOR A LINEAR INCREMENT           1.000E-08
     FIELD CONVERSION RATIO                                             1.00    
     CRITERION FOR ZERO FORCE     REL. TO TIME AVRG. MAX. FORCE        1.000E-05
     CRITERION FOR ZERO DISP.    RELATIVE TO CHARACTERISTIC LENGTH     1.000E-08

 CONVERGENCE TOLERANCE PARAMETERS FOR MOMENT   
     CRITERION FOR RESIDUAL MOMENT    FOR A NONLINEAR PROBLEM          5.000E-03
     CRITERION FOR ROTATION CORRECTION IN A NONLINEAR PROBLEM          1.000E-02
     INITIAL VALUE OF TIME AVERAGE MOMENT                              1.000E-02
     AVERAGE MOMENT    IS TIME AVERAGE MOMENT   
     ALTERNATE CRIT. FOR RESIDUAL MOMENT    FOR A NONLINEAR PROBLEM    2.000E-02
     CRITERION FOR ZERO MOMENT    RELATIVE TO TIME AVRG. MOMENT        1.000E-05
     CRITERION FOR RESIDUAL MOMENT    WHEN THERE IS ZERO FLUX          1.000E-05
     CRITERION FOR ROTATION CORRECTION WHEN THERE IS ZERO FLUX         1.000E-03
     CRITERION FOR RESIDUAL MOMENT    FOR A LINEAR INCREMENT           1.000E-08
     FIELD CONVERSION RATIO                                             1.00    
     CRITERION FOR ZERO MOMENT    REL. TO TIME AVRG. MAX. MOMENT       1.000E-05

     VOLUMETRIC STRAIN COMPATIBILITY TOLERANCE FOR HYBRID SOLIDS       1.000E-05
     AXIAL STRAIN COMPATIBILITY TOLERANCE FOR HYBRID BEAMS             1.000E-05
     TRANS. SHEAR STRAIN COMPATIBILITY TOLERANCE FOR HYBRID BEAMS      1.000E-05
     SOFT CONTACT CONSTRAINT COMPATIBILITY TOLERANCE FOR P>P0          5.000E-03
     SOFT CONTACT CONSTRAINT COMPATIBILITY TOLERANCE FOR P=0.0         0.100    
     CONTACT FORCE ERROR TOLERANCE FOR CONVERT SDI=YES                 1.00    
     DISPLACEMENT COMPATIBILITY TOLERANCE FOR DCOUP ELEMENTS           1.000E-05
     ROTATION COMPATIBILITY TOLERANCE FOR DCOUP ELEMENTS               1.000E-05

 EQUILIBRIUM WILL BE CHECKED FOR SEVERE DISCONTINUITY ITERATIONS

 TIME INCREMENTATION CONTROL PARAMETERS:
     FIRST EQUILIBRIUM ITERATION FOR CONSECUTIVE DIVERGENCE CHECK              4
     EQUILIBRIUM ITERATION AT WHICH LOG. CONVERGENCE RATE CHECK BEGINS         8
     EQUILIBRIUM ITERATION AFTER WHICH ALTERNATE RESIDUAL IS USED              9
     MAXIMUM EQUILIBRIUM ITERATIONS ALLOWED                                   16
     EQUILIBRIUM ITERATION COUNT FOR CUT-BACK IN NEXT INCREMENT               10
     MAXIMUM EQUILIB. ITERS IN TWO INCREMENTS FOR TIME INCREMENT INCREASE      4
     MAXIMUM ITERATIONS FOR SEVERE DISCONTINUITIES                            50
     MAXIMUM ATTEMPTS ALLOWED IN AN INCREMENT                                  5
     MAXIMUM DISCON. ITERS IN TWO INCREMENTS FOR TIME INCREMENT INCREASE      50
     MAXIMUM CONTACT AUGMENTATIONS FOR *SURFACE BEHAVIOR,AUGMENTED LAGRANGE   50
     CUT-BACK FACTOR AFTER DIVERGENCE                                 0.2500    
     CUT-BACK FACTOR FOR TOO SLOW CONVERGENCE                         0.5000    
     CUT-BACK FACTOR AFTER TOO MANY EQUILIBRIUM ITERATIONS            0.7500    
     CUT-BACK FACTOR AFTER TOO MANY SEVERE DISCONTINUITY ITERATIONS   0.2500    
     CUT-BACK FACTOR AFTER PROBLEMS IN ELEMENT ASSEMBLY               0.2500    
     INCREASE FACTOR AFTER TWO INCREMENTS THAT CONVERGE QUICKLY        1.500    
     MAX. TIME INCREMENT INCREASE FACTOR ALLOWED                       1.500    
     MAX. TIME INCREMENT INCREASE FACTOR ALLOWED (DYNAMICS)            1.250    
     MAX. TIME INCREMENT INCREASE FACTOR ALLOWED (DIFFUSION)           2.000    
     MINIMUM TIME INCREMENT RATIO FOR EXTRAPOLATION TO OCCUR          0.1000    
     MAX. RATIO OF TIME INCREMENT TO STABILITY LIMIT                   1.000    
     FRACTION OF STABILITY LIMIT FOR NEW TIME INCREMENT               0.9500    
     TIME INCREMENT INCREASE FACTOR BEFORE A TIME POINT                1.000    
     GLOBAL STABILIZATION CONTROL IS NOT USED

          PRINT OF INCREMENT NUMBER, TIME, ETC., EVERY    1  INCREMENTS

     THE MAXIMUM NUMBER OF INCREMENTS IN THIS STEP IS                   10000

          UNSYMMETRIC MATRIX STORAGE AND SOLUTION WILL BE USED

     LINEAR EXTRAPOLATION WILL BE USED

     CHARACTERISTIC ELEMENT LENGTH      54.0    

     DETAILS REGARDING ACTUAL SOLUTION WAVEFRONT REQUESTED

     DETAILED OUTPUT OF DIAGNOSTICS TO DATABASE REQUESTED

     PRINT OF INCREMENT NUMBER, TIME, ETC., TO THE MESSAGE FILE EVERY     1  INCREMENTS

     ELEMENT OPERATIONS WILL BE CARRIED OUT IN PARALLEL USING   4 THREADS ON 1 DOMAIN

     PARALLEL CONTACT TRACKING ENABLED


     COLLECTING MODEL CONSTRAINT INFORMATION FOR OVERCONSTRAINT CHECKS

     COLLECTING STEP CONSTRAINT INFORMATION FOR OVERCONSTRAINT CHECKS


  INCREMENT     1 STARTS. ATTEMPT NUMBER  1, TIME INCREMENT  1.000E-02
 
     INITIAL ELEMENT LOAD BALANCE
            DOMAIN    1     THREAD    NUMBER OF ELEMENTS
                              1            1768
                              2            1623
                              3            1712
                              4            1920
 
	UNSYMMETRIC DIRECT SPARSE SOLVER RUNNING ON
 	1 HOST:        1 MPI RANK  x 4 THREADS
 	NUMBER OF EQUATIONS:     24759
 	NUMBER OF RHS:           1
 	NUMBER OF FLOPS:         8.260e+09

     CHECK POINT   START OF SOLVER    

     CHECK POINT  END OF SOLVER       

       ELAPSED USER TIME (SEC)      =   1.9000    
       ELAPSED SYSTEM TIME (SEC)    =  0.10000    
       ELAPSED TOTAL CPU TIME (SEC) =   2.0000    
       ELAPSED WALLCLOCK TIME (SEC) =          0

               CONVERGENCE CHECKS FOR EQUILIBRIUM ITERATION     1


 AVERAGE FORCE                       1.44       TIME AVG. FORCE        1.44    
 LARGEST RESIDUAL FORCE            -1.135E-08   AT NODE        352   DOF  3
   INSTANCE: PADTR                                                                           
 LARGEST INCREMENT OF DISP.        -1.274E-02   AT NODE        225   DOF  3
   INSTANCE: BEAM1                                                                           
 LARGEST CORRECTION TO DISP.       -1.274E-02   AT NODE        225   DOF  3
   INSTANCE: BEAM1                                                                           
          THE FORCE     EQUILIBRIUM RESPONSE WAS LINEAR IN THIS INCREMENT

 AVERAGE MOMENT                      0.00       TIME AVG. MOMENT       77.5    
                                                (FROM FORCE     FIELD)
 LARGEST RESIDUAL MOMENT            3.504E-08   AT NODE        352   DOF  5
   INSTANCE: PADR                                                                            
 LARGEST INCREMENT OF ROTATION      8.506E-06   AT NODE         27   DOF  5
   INSTANCE: PADR                                                                            
 LARGEST CORRECTION TO ROTATION     8.506E-06   AT NODE         27   DOF  5
   INSTANCE: PADR                                                                            
          THERE IS ZERO MOMENT    EVERYWHERE

 ITERATION SUMMARY FOR THE INCREMENT:   1 TOTAL ITERATIONS, OF WHICH
   0 ARE SEVERE DISCONTINUITY ITERATIONS AND  1 ARE EQUILIBRIUM ITERATIONS.

 TIME INCREMENT COMPLETED  1.000E-02,  FRACTION OF STEP COMPLETED  5.000E-02
 STEP TIME COMPLETED       1.000E-02,  TOTAL TIME COMPLETED        1.000E-02


  INCREMENT     2 STARTS. ATTEMPT NUMBER  1, TIME INCREMENT  1.000E-02
 
	SYMMETRIC DIRECT SPARSE SOLVER RUNNING ON
 	1 HOST:        1 MPI RANK  x 4 THREADS
 	NUMBER OF EQUATIONS:     24759
 	NUMBER OF RHS:           1
 	NUMBER OF FLOPS:         8.260e+09

     CHECK POINT   START OF SOLVER    

     CHECK POINT  END OF SOLVER       

       ELAPSED USER TIME (SEC)      =  0.20000    
       ELAPSED SYSTEM TIME (SEC)    =   0.0000    
       ELAPSED TOTAL CPU TIME (SEC) =  0.20000    
       ELAPSED WALLCLOCK TIME (SEC) =          0

               CONVERGENCE CHECKS FOR EQUILIBRIUM ITERATION     1


 AVERAGE FORCE                       4.34       TIME AVG. FORCE        2.89    
 LARGEST RESIDUAL FORCE             2.589E-10   AT NODE        352   DOF  3
   INSTANCE: PADTR                                                                           
 LARGEST INCREMENT OF DISP.        -1.274E-02   AT NODE        271   DOF  3
   INSTANCE: BEAM1                                                                           
 LARGEST CORRECTION TO DISP.       -1.087E-12   AT NODE        270   DOF  3
   INSTANCE: BEAM1                                                                           
          THE FORCE     EQUILIBRIUM RESPONSE WAS LINEAR IN THIS INCREMENT

 AVERAGE MOMENT                      0.00       TIME AVG. MOMENT       77.5    
                                                (FROM FORCE     FIELD)
 LARGEST RESIDUAL MOMENT            3.388E-08   AT NODE        352   DOF  4
   INSTANCE: PADTR                                                                           
 LARGEST INCREMENT OF ROTATION     -8.506E-06   AT NODE         27   DOF  5
   INSTANCE: PADL                                                                            
 LARGEST CORRECTION TO ROTATION    -7.376E-16   AT NODE         27   DOF  5
   INSTANCE: PADL                                                                            
          THERE IS ZERO MOMENT    EVERYWHERE
          TIME INCREMENT MAY NOW INCREASE TO    1.500E-02

 ITERATION SUMMARY FOR THE INCREMENT:   1 TOTAL ITERATIONS, OF WHICH
   0 ARE SEVERE DISCONTINUITY ITERATIONS AND  1 ARE EQUILIBRIUM ITERATIONS.

 TIME INCREMENT COMPLETED  1.000E-02,  FRACTION OF STEP COMPLETED  0.100    
 STEP TIME COMPLETED       2.000E-02,  TOTAL TIME COMPLETED        2.000E-02


  INCREMENT     3 STARTS. ATTEMPT NUMBER  1, TIME INCREMENT  1.500E-02
 
	SYMMETRIC DIRECT SPARSE SOLVER RUNNING ON
 	1 HOST:        1 MPI RANK  x 4 THREADS
 	NUMBER OF EQUATIONS:     24759
 	NUMBER OF RHS:           1
 	NUMBER OF FLOPS:         8.260e+09

     CHECK POINT   START OF SOLVER    

     CHECK POINT  END OF SOLVER       

       ELAPSED USER TIME (SEC)      =  0.10000    
       ELAPSED SYSTEM TIME (SEC)    =   0.0000    
       ELAPSED TOTAL CPU TIME (SEC) =  0.10000    
       ELAPSED WALLCLOCK TIME (SEC) =          0

               CONVERGENCE CHECKS FOR EQUILIBRIUM ITERATION     1


 AVERAGE FORCE                       7.59       TIME AVG. FORCE        4.46    
 LARGEST RESIDUAL FORCE            -1.404E-09   AT NODE        352   DOF  3
   INSTANCE: PADTR                                                                           
 LARGEST INCREMENT OF DISP.        -1.911E-02   AT NODE        225   DOF  3
   INSTANCE: BEAM1                                                                           
 LARGEST CORRECTION TO DISP.        8.149E-13   AT NODE        270   DOF  3
   INSTANCE: BEAM1                                                                           
          THE FORCE     EQUILIBRIUM RESPONSE WAS LINEAR IN THIS INCREMENT

 AVERAGE MOMENT                      0.00       TIME AVG. MOMENT       156.    
                                                (FROM FORCE     FIELD)
 LARGEST RESIDUAL MOMENT           -4.425E-08   AT NODE        352   DOF  4
   INSTANCE: PADTR                                                                           
 LARGEST INCREMENT OF ROTATION     -1.276E-05   AT NODE         27   DOF  5
   INSTANCE: PADL                                                                            
 LARGEST CORRECTION TO ROTATION     5.532E-16   AT NODE         27   DOF  5
   INSTANCE: PADL                                                                            
          THERE IS ZERO MOMENT    EVERYWHERE
          TIME INCREMENT MAY NOW INCREASE TO    2.250E-02

 ITERATION SUMMARY FOR THE INCREMENT:   1 TOTAL ITERATIONS, OF WHICH
   0 ARE SEVERE DISCONTINUITY ITERATIONS AND  1 ARE EQUILIBRIUM ITERATIONS.

 TIME INCREMENT COMPLETED  1.500E-02,  FRACTION OF STEP COMPLETED  0.175    
 STEP TIME COMPLETED       3.500E-02,  TOTAL TIME COMPLETED        3.500E-02


  INCREMENT     4 STARTS. ATTEMPT NUMBER  1, TIME INCREMENT  2.250E-02
 
	SYMMETRIC DIRECT SPARSE SOLVER RUNNING ON
 	1 HOST:        1 MPI RANK  x 4 THREADS
 	NUMBER OF EQUATIONS:     24759
 	NUMBER OF RHS:           1
 	NUMBER OF FLOPS:         8.260e+09

     CHECK POINT   START OF SOLVER    

     CHECK POINT  END OF SOLVER       

       ELAPSED USER TIME (SEC)      =  0.10000    
       ELAPSED SYSTEM TIME (SEC)    =   0.0000    
       ELAPSED TOTAL CPU TIME (SEC) =  0.10000    
       ELAPSED WALLCLOCK TIME (SEC) =          0

               CONVERGENCE CHECKS FOR EQUILIBRIUM ITERATION     1


 AVERAGE FORCE                       12.5       TIME AVG. FORCE        6.46    
 LARGEST RESIDUAL FORCE             1.186E-09   AT NODE        352   DOF  3
   INSTANCE: PADTL                                                                           
 LARGEST INCREMENT OF DISP.        -2.866E-02   AT NODE        225   DOF  3
   INSTANCE: BEAM1                                                                           
 LARGEST CORRECTION TO DISP.        3.411E-17   AT NODE       1720   DOF  2
   INSTANCE: BEAM1                                                                           
          THE FORCE     EQUILIBRIUM RESPONSE WAS LINEAR IN THIS INCREMENT

 AVERAGE MOMENT                      0.00       TIME AVG. MOMENT       240.    
                                                (FROM FORCE     FIELD)
 LARGEST RESIDUAL MOMENT            6.448E-08   AT NODE        352   DOF  4
   INSTANCE: PADTR                                                                           
 LARGEST INCREMENT OF ROTATION      1.914E-05   AT NODE         27   DOF  5
   INSTANCE: PADR                                                                            
 LARGEST CORRECTION TO ROTATION    -2.983E-20   AT NODE         27   DOF  6
   INSTANCE: PADTR                                                                           
          THERE IS ZERO MOMENT    EVERYWHERE
          TIME INCREMENT MAY NOW INCREASE TO    3.375E-02

 ITERATION SUMMARY FOR THE INCREMENT:   1 TOTAL ITERATIONS, OF WHICH
   0 ARE SEVERE DISCONTINUITY ITERATIONS AND  1 ARE EQUILIBRIUM ITERATIONS.

 TIME INCREMENT COMPLETED  2.250E-02,  FRACTION OF STEP COMPLETED  0.287    
 STEP TIME COMPLETED       5.750E-02,  TOTAL TIME COMPLETED        5.750E-02


  INCREMENT     5 STARTS. ATTEMPT NUMBER  1, TIME INCREMENT  3.375E-02
 
	SYMMETRIC DIRECT SPARSE SOLVER RUNNING ON
 	1 HOST:        1 MPI RANK  x 4 THREADS
 	NUMBER OF EQUATIONS:     24759
 	NUMBER OF RHS:           1
 	NUMBER OF FLOPS:         8.260e+09

     CHECK POINT   START OF SOLVER    

     CHECK POINT  END OF SOLVER       

       ELAPSED USER TIME (SEC)      =  0.10000    
       ELAPSED SYSTEM TIME (SEC)    =  0.10000    
       ELAPSED TOTAL CPU TIME (SEC) =  0.20000    
       ELAPSED WALLCLOCK TIME (SEC) =          0

               CONVERGENCE CHECKS FOR EQUILIBRIUM ITERATION     1


 AVERAGE FORCE                       19.8       TIME AVG. FORCE        9.12    
 LARGEST RESIDUAL FORCE             3.852E-10   AT NODE        352   DOF  2
   INSTANCE: PADTL                                                                           
 LARGEST INCREMENT OF DISP.        -4.300E-02   AT NODE        225   DOF  3
   INSTANCE: BEAM1                                                                           
 LARGEST CORRECTION TO DISP.        1.777E-16   AT NODE       1792   DOF  3
   INSTANCE: BEAM1                                                                           
          THE FORCE     EQUILIBRIUM RESPONSE WAS LINEAR IN THIS INCREMENT

 AVERAGE MOMENT                      0.00       TIME AVG. MOMENT       349.    
                                                (FROM FORCE     FIELD)
 LARGEST RESIDUAL MOMENT            1.285E-07   AT NODE        352   DOF  4
   INSTANCE: PADTL                                                                           
 LARGEST INCREMENT OF ROTATION      2.871E-05   AT NODE         27   DOF  5
   INSTANCE: PADR                                                                            
 LARGEST CORRECTION TO ROTATION     1.016E-19   AT NODE         27   DOF  5
   INSTANCE: PADL                                                                            
          THERE IS ZERO MOMENT    EVERYWHERE
          TIME INCREMENT MAY NOW INCREASE TO    5.063E-02

 ITERATION SUMMARY FOR THE INCREMENT:   1 TOTAL ITERATIONS, OF WHICH
   0 ARE SEVERE DISCONTINUITY ITERATIONS AND  1 ARE EQUILIBRIUM ITERATIONS.

 TIME INCREMENT COMPLETED  3.375E-02,  FRACTION OF STEP COMPLETED  0.456    
 STEP TIME COMPLETED       9.125E-02,  TOTAL TIME COMPLETED        9.125E-02


  INCREMENT     6 STARTS. ATTEMPT NUMBER  1, TIME INCREMENT  5.063E-02
 
	SYMMETRIC DIRECT SPARSE SOLVER RUNNING ON
 	1 HOST:        1 MPI RANK  x 4 THREADS
 	NUMBER OF EQUATIONS:     24759
 	NUMBER OF RHS:           1
 	NUMBER OF FLOPS:         8.260e+09

     CHECK POINT   START OF SOLVER    

     CHECK POINT  END OF SOLVER       

       ELAPSED USER TIME (SEC)      =  0.10000    
       ELAPSED SYSTEM TIME (SEC)    =   0.0000    
       ELAPSED TOTAL CPU TIME (SEC) =  0.10000    
       ELAPSED WALLCLOCK TIME (SEC) =          0

               CONVERGENCE CHECKS FOR EQUILIBRIUM ITERATION     1


 AVERAGE FORCE                       30.8       TIME AVG. FORCE        12.7    
 LARGEST RESIDUAL FORCE            -3.547E-09   AT NODE        352   DOF  3
   INSTANCE: PADTL                                                                           
 LARGEST INCREMENT OF DISP.        -6.450E-02   AT NODE        225   DOF  3
   INSTANCE: BEAM1                                                                           
 LARGEST CORRECTION TO DISP.       -1.555E-16   AT NODE       1792   DOF  3
   INSTANCE: BEAM1                                                                           
          THE FORCE     EQUILIBRIUM RESPONSE WAS LINEAR IN THIS INCREMENT

 AVERAGE MOMENT                      0.00       TIME AVG. MOMENT       492.    
                                                (FROM FORCE     FIELD)
 LARGEST RESIDUAL MOMENT            1.650E-07   AT NODE        352   DOF  5
   INSTANCE: PADTL                                                                           
 LARGEST INCREMENT OF ROTATION     -4.306E-05   AT NODE         27   DOF  5
   INSTANCE: PADL                                                                            
 LARGEST CORRECTION TO ROTATION    -6.776E-20   AT NODE         27   DOF  5
   INSTANCE: PADL                                                                            
          THERE IS ZERO MOMENT    EVERYWHERE
          TIME INCREMENT MAY NOW INCREASE TO    7.594E-02

 ITERATION SUMMARY FOR THE INCREMENT:   1 TOTAL ITERATIONS, OF WHICH
   0 ARE SEVERE DISCONTINUITY ITERATIONS AND  1 ARE EQUILIBRIUM ITERATIONS.

 TIME INCREMENT COMPLETED  5.063E-02,  FRACTION OF STEP COMPLETED  0.709    
 STEP TIME COMPLETED       0.142    ,  TOTAL TIME COMPLETED        0.142    


  INCREMENT     7 STARTS. ATTEMPT NUMBER  1, TIME INCREMENT  5.813E-02
 
	SYMMETRIC DIRECT SPARSE SOLVER RUNNING ON
 	1 HOST:        1 MPI RANK  x 4 THREADS
 	NUMBER OF EQUATIONS:     24759
 	NUMBER OF RHS:           1
 	NUMBER OF FLOPS:         8.260e+09

     CHECK POINT   START OF SOLVER    

     CHECK POINT  END OF SOLVER       

       ELAPSED USER TIME (SEC)      =  0.10000    
       ELAPSED SYSTEM TIME (SEC)    =   0.0000    
       ELAPSED TOTAL CPU TIME (SEC) =  0.10000    
       ELAPSED WALLCLOCK TIME (SEC) =          0

               CONVERGENCE CHECKS FOR EQUILIBRIUM ITERATION     1


 AVERAGE FORCE                       43.4       TIME AVG. FORCE        17.1    
 LARGEST RESIDUAL FORCE             4.682E-09   AT NODE        352   DOF  3
   INSTANCE: PADTR                                                                           
 LARGEST INCREMENT OF DISP.        -7.405E-02   AT NODE        225   DOF  3
   INSTANCE: BEAM1                                                                           
 LARGEST CORRECTION TO DISP.       -1.242E-16   AT NODE        413   DOF  3
   INSTANCE: BEAM1                                                                           
          THE FORCE     EQUILIBRIUM RESPONSE WAS LINEAR IN THIS INCREMENT

 AVERAGE MOMENT                      0.00       TIME AVG. MOMENT       687.    
                                                (FROM FORCE     FIELD)
 LARGEST RESIDUAL MOMENT            1.551E-07   AT NODE        352   DOF  4
   INSTANCE: PADTR                                                                           
 LARGEST INCREMENT OF ROTATION      4.944E-05   AT NODE         27   DOF  5
   INSTANCE: PADR                                                                            
 LARGEST CORRECTION TO ROTATION     1.050E-19   AT NODE         27   DOF  5
   INSTANCE: PADTL                                                                           
          THERE IS ZERO MOMENT    EVERYWHERE

 ITERATION SUMMARY FOR THE INCREMENT:   1 TOTAL ITERATIONS, OF WHICH
   0 ARE SEVERE DISCONTINUITY ITERATIONS AND  1 ARE EQUILIBRIUM ITERATIONS.

 TIME INCREMENT COMPLETED  5.813E-02,  FRACTION OF STEP COMPLETED   1.00    
 STEP TIME COMPLETED       0.200    ,  TOTAL TIME COMPLETED        0.200    
1

   Abaqus 2022                                  Date 30-3ÔÂ-2025   Time 02:18:28
   For use by Supplied by Team-SolidSQUAD under license from Dassault Systemes or its subsidiary.

                                                                                 
                                                                                 
 STEP    2     INCREMENT     1     STEP TIME    0.00    


                        S T E P       2     S T A T I C   A N A L Y S I S


                                                                                          

     AUTOMATIC TIME CONTROL WITH -
          A SUGGESTED INITIAL TIME INCREMENT OF                1.000E-02
          AND A TOTAL TIME PERIOD OF                            1.00    
          THE MINIMUM TIME INCREMENT ALLOWED IS                1.000E-06
          THE MAXIMUM TIME INCREMENT ALLOWED IS                 1.00    

     LINEAR EQUATION SOLVER TYPE         DIRECT SPARSE

 CONVERGENCE TOLERANCE PARAMETERS FOR FORCE    
     CRITERION FOR RESIDUAL FORCE     FOR A NONLINEAR PROBLEM          5.000E-03
     CRITERION FOR DISP.    CORRECTION IN A NONLINEAR PROBLEM          1.000E-02
     INIT. VALUE OF TIME AVG. FORCE     IS TIME AVG. FORCE     IN PREVIOUS STEP
     AVERAGE FORCE     IS TIME AVERAGE FORCE    
     ALTERNATE CRIT. FOR RESIDUAL FORCE     FOR A NONLINEAR PROBLEM    2.000E-02
     CRITERION FOR ZERO FORCE     RELATIVE TO TIME AVRG. FORCE         1.000E-05
     CRITERION FOR RESIDUAL FORCE     WHEN THERE IS ZERO FLUX          1.000E-05
     CRITERION FOR DISP.    CORRECTION WHEN THERE IS ZERO FLUX         1.000E-03
     CRITERION FOR RESIDUAL FORCE     FOR A LINEAR INCREMENT           1.000E-08
     FIELD CONVERSION RATIO                                             1.00    
     CRITERION FOR ZERO FORCE     REL. TO TIME AVRG. MAX. FORCE        1.000E-05
     CRITERION FOR ZERO DISP.    RELATIVE TO CHARACTERISTIC LENGTH     1.000E-08

 CONVERGENCE TOLERANCE PARAMETERS FOR MOMENT   
     CRITERION FOR RESIDUAL MOMENT    FOR A NONLINEAR PROBLEM          5.000E-03
     CRITERION FOR ROTATION CORRECTION IN A NONLINEAR PROBLEM          1.000E-02
     INIT. VALUE OF TIME AVG. MOMENT    IS TIME AVG. MOMENT    IN PREVIOUS STEP
     AVERAGE MOMENT    IS TIME AVERAGE MOMENT   
     ALTERNATE CRIT. FOR RESIDUAL MOMENT    FOR A NONLINEAR PROBLEM    2.000E-02
     CRITERION FOR ZERO MOMENT    RELATIVE TO TIME AVRG. MOMENT        1.000E-05
     CRITERION FOR RESIDUAL MOMENT    WHEN THERE IS ZERO FLUX          1.000E-05
     CRITERION FOR ROTATION CORRECTION WHEN THERE IS ZERO FLUX         1.000E-03
     CRITERION FOR RESIDUAL MOMENT    FOR A LINEAR INCREMENT           1.000E-08
     FIELD CONVERSION RATIO                                             1.00    
     CRITERION FOR ZERO MOMENT    REL. TO TIME AVRG. MAX. MOMENT       1.000E-05

     VOLUMETRIC STRAIN COMPATIBILITY TOLERANCE FOR HYBRID SOLIDS       1.000E-05
     AXIAL STRAIN COMPATIBILITY TOLERANCE FOR HYBRID BEAMS             1.000E-05
     TRANS. SHEAR STRAIN COMPATIBILITY TOLERANCE FOR HYBRID BEAMS      1.000E-05
     SOFT CONTACT CONSTRAINT COMPATIBILITY TOLERANCE FOR P>P0          5.000E-03
     SOFT CONTACT CONSTRAINT COMPATIBILITY TOLERANCE FOR P=0.0         0.100    
     CONTACT FORCE ERROR TOLERANCE FOR CONVERT SDI=YES                 1.00    
     DISPLACEMENT COMPATIBILITY TOLERANCE FOR DCOUP ELEMENTS           1.000E-05
     ROTATION COMPATIBILITY TOLERANCE FOR DCOUP ELEMENTS               1.000E-05

 EQUILIBRIUM WILL BE CHECKED FOR SEVERE DISCONTINUITY ITERATIONS

 TIME INCREMENTATION CONTROL PARAMETERS:
     FIRST EQUILIBRIUM ITERATION FOR CONSECUTIVE DIVERGENCE CHECK              4
     EQUILIBRIUM ITERATION AT WHICH LOG. CONVERGENCE RATE CHECK BEGINS         8
     EQUILIBRIUM ITERATION AFTER WHICH ALTERNATE RESIDUAL IS USED              9
     MAXIMUM EQUILIBRIUM ITERATIONS ALLOWED                                   16
     EQUILIBRIUM ITERATION COUNT FOR CUT-BACK IN NEXT INCREMENT               10
     MAXIMUM EQUILIB. ITERS IN TWO INCREMENTS FOR TIME INCREMENT INCREASE      4
     MAXIMUM ITERATIONS FOR SEVERE DISCONTINUITIES                            50
     MAXIMUM ATTEMPTS ALLOWED IN AN INCREMENT                                  5
     MAXIMUM DISCON. ITERS IN TWO INCREMENTS FOR TIME INCREMENT INCREASE      50
     MAXIMUM CONTACT AUGMENTATIONS FOR *SURFACE BEHAVIOR,AUGMENTED LAGRANGE   50
     CUT-BACK FACTOR AFTER DIVERGENCE                                 0.2500    
     CUT-BACK FACTOR FOR TOO SLOW CONVERGENCE                         0.5000    
     CUT-BACK FACTOR AFTER TOO MANY EQUILIBRIUM ITERATIONS            0.7500    
     CUT-BACK FACTOR AFTER TOO MANY SEVERE DISCONTINUITY ITERATIONS   0.2500    
     CUT-BACK FACTOR AFTER PROBLEMS IN ELEMENT ASSEMBLY               0.2500    
     INCREASE FACTOR AFTER TWO INCREMENTS THAT CONVERGE QUICKLY        1.500    
     MAX. TIME INCREMENT INCREASE FACTOR ALLOWED                       1.500    
     MAX. TIME INCREMENT INCREASE FACTOR ALLOWED (DYNAMICS)            1.250    
     MAX. TIME INCREMENT INCREASE FACTOR ALLOWED (DIFFUSION)           2.000    
     MINIMUM TIME INCREMENT RATIO FOR EXTRAPOLATION TO OCCUR          0.1000    
     MAX. RATIO OF TIME INCREMENT TO STABILITY LIMIT                   1.000    
     FRACTION OF STABILITY LIMIT FOR NEW TIME INCREMENT               0.9500    
     TIME INCREMENT INCREASE FACTOR BEFORE A TIME POINT                1.000    
     GLOBAL STABILIZATION CONTROL IS NOT USED

          PRINT OF INCREMENT NUMBER, TIME, ETC., EVERY    1  INCREMENTS

     THE MAXIMUM NUMBER OF INCREMENTS IN THIS STEP IS                   10000

          UNSYMMETRIC MATRIX STORAGE AND SOLUTION WILL BE USED

     LINEAR EXTRAPOLATION WILL BE USED

     CHARACTERISTIC ELEMENT LENGTH      54.0    

     DETAILS REGARDING ACTUAL SOLUTION WAVEFRONT REQUESTED

     DETAILED OUTPUT OF DIAGNOSTICS TO DATABASE REQUESTED

     PRINT OF INCREMENT NUMBER, TIME, ETC., TO THE MESSAGE FILE EVERY     1  INCREMENTS

     ELEMENT OPERATIONS WILL BE CARRIED OUT IN PARALLEL USING   4 THREADS ON 1 DOMAIN

     COLLECTING STEP CONSTRAINT INFORMATION FOR OVERCONSTRAINT CHECKS


  INCREMENT     1 STARTS. ATTEMPT NUMBER  1, TIME INCREMENT  1.000E-02
 
     INITIAL ELEMENT LOAD BALANCE
            DOMAIN    1     THREAD    NUMBER OF ELEMENTS
                              1            1567
                              2            1784
                              3            1944
                              4            1728
 
	UNSYMMETRIC DIRECT SPARSE SOLVER RUNNING ON
 	1 HOST:        1 MPI RANK  x 4 THREADS
 	NUMBER OF EQUATIONS:     24759
 	NUMBER OF RHS:           1
 	NUMBER OF FLOPS:         8.260e+09

     CHECK POINT   START OF SOLVER    

     CHECK POINT  END OF SOLVER       

       ELAPSED USER TIME (SEC)      =   1.7000    
       ELAPSED SYSTEM TIME (SEC)    =   0.0000    
       ELAPSED TOTAL CPU TIME (SEC) =   1.7000    
       ELAPSED WALLCLOCK TIME (SEC) =          1

               CONVERGENCE CHECKS FOR EQUILIBRIUM ITERATION     1


 AVERAGE FORCE                       51.0       TIME AVG. FORCE        51.0    
 LARGEST RESIDUAL FORCE            -4.384E-08   AT NODE        352   DOF  3
   INSTANCE: PADTR                                                                           
 LARGEST INCREMENT OF DISP.        -4.527E-02   AT NODE        225   DOF  3
   INSTANCE: BEAM1                                                                           
 LARGEST CORRECTION TO DISP.       -4.527E-02   AT NODE        225   DOF  3
   INSTANCE: BEAM1                                                                           
          THE FORCE     EQUILIBRIUM RESPONSE WAS LINEAR IN THIS INCREMENT

 AVERAGE MOMENT                      0.00       TIME AVG. MOMENT      2.750E+03
                                                (FROM FORCE     FIELD)
 LARGEST RESIDUAL MOMENT            1.276E-07   AT NODE        352   DOF  5
   INSTANCE: PADR                                                                            
 LARGEST INCREMENT OF ROTATION      2.951E-05   AT NODE         27   DOF  5
   INSTANCE: PADR                                                                            
 LARGEST CORRECTION TO ROTATION     2.951E-05   AT NODE         27   DOF  5
   INSTANCE: PADR                                                                            
          THERE IS ZERO MOMENT    EVERYWHERE

 ITERATION SUMMARY FOR THE INCREMENT:   1 TOTAL ITERATIONS, OF WHICH
   0 ARE SEVERE DISCONTINUITY ITERATIONS AND  1 ARE EQUILIBRIUM ITERATIONS.

 TIME INCREMENT COMPLETED  1.000E-02,  FRACTION OF STEP COMPLETED  1.000E-02
 STEP TIME COMPLETED       1.000E-02,  TOTAL TIME COMPLETED        0.210    


  INCREMENT     2 STARTS. ATTEMPT NUMBER  1, TIME INCREMENT  1.000E-02
 
	SYMMETRIC DIRECT SPARSE SOLVER RUNNING ON
 	1 HOST:        1 MPI RANK  x 4 THREADS
 	NUMBER OF EQUATIONS:     24759
 	NUMBER OF RHS:           1
 	NUMBER OF FLOPS:         8.260e+09

     CHECK POINT   START OF SOLVER    

     CHECK POINT  END OF SOLVER       

       ELAPSED USER TIME (SEC)      =  0.10000    
       ELAPSED SYSTEM TIME (SEC)    =   0.0000    
       ELAPSED TOTAL CPU TIME (SEC) =  0.10000    
       ELAPSED WALLCLOCK TIME (SEC) =          0

               CONVERGENCE CHECKS FOR EQUILIBRIUM ITERATION     1


 AVERAGE FORCE                       58.7       TIME AVG. FORCE        54.8    
 LARGEST RESIDUAL FORCE             1.868E-09   AT NODE        352   DOF  3
   INSTANCE: PADTL                                                                           
 LARGEST INCREMENT OF DISP.        -4.527E-02   AT NODE        271   DOF  3
   INSTANCE: BEAM1                                                                           
 LARGEST CORRECTION TO DISP.       -3.874E-12   AT NODE        270   DOF  3
   INSTANCE: BEAM1                                                                           
          THE FORCE     EQUILIBRIUM RESPONSE WAS LINEAR IN THIS INCREMENT

 AVERAGE MOMENT                      0.00       TIME AVG. MOMENT      2.750E+03
                                                (FROM FORCE     FIELD)
 LARGEST RESIDUAL MOMENT            1.177E-07   AT NODE        352   DOF  5
   INSTANCE: PADTR                                                                           
 LARGEST INCREMENT OF ROTATION     -2.951E-05   AT NODE         27   DOF  5
   INSTANCE: PADL                                                                            
 LARGEST CORRECTION TO ROTATION    -2.627E-15   AT NODE        352   DOF  5
   INSTANCE: PADL                                                                            
          THERE IS ZERO MOMENT    EVERYWHERE
          TIME INCREMENT MAY NOW INCREASE TO    1.500E-02

 ITERATION SUMMARY FOR THE INCREMENT:   1 TOTAL ITERATIONS, OF WHICH
   0 ARE SEVERE DISCONTINUITY ITERATIONS AND  1 ARE EQUILIBRIUM ITERATIONS.

 TIME INCREMENT COMPLETED  1.000E-02,  FRACTION OF STEP COMPLETED  2.000E-02
 STEP TIME COMPLETED       2.000E-02,  TOTAL TIME COMPLETED        0.220    


  INCREMENT     3 STARTS. ATTEMPT NUMBER  1, TIME INCREMENT  1.500E-02
 
	SYMMETRIC DIRECT SPARSE SOLVER RUNNING ON
 	1 HOST:        1 MPI RANK  x 4 THREADS
 	NUMBER OF EQUATIONS:     24759
 	NUMBER OF RHS:           1
 	NUMBER OF FLOPS:         8.260e+09

     CHECK POINT   START OF SOLVER    

     CHECK POINT  END OF SOLVER       

       ELAPSED USER TIME (SEC)      =  0.10000    
       ELAPSED SYSTEM TIME (SEC)    =   0.0000    
       ELAPSED TOTAL CPU TIME (SEC) =  0.10000    
       ELAPSED WALLCLOCK TIME (SEC) =          0

               CONVERGENCE CHECKS FOR EQUILIBRIUM ITERATION     1


 AVERAGE FORCE                       70.2       TIME AVG. FORCE        60.0    
 LARGEST RESIDUAL FORCE            -3.970E-09   AT NODE        352   DOF  3
   INSTANCE: PADTR                                                                           
 LARGEST INCREMENT OF DISP.        -6.790E-02   AT NODE        225   DOF  3
   INSTANCE: BEAM1                                                                           
 LARGEST CORRECTION TO DISP.        2.906E-12   AT NODE        270   DOF  3
   INSTANCE: BEAM1                                                                           
          THE FORCE     EQUILIBRIUM RESPONSE WAS LINEAR IN THIS INCREMENT

 AVERAGE MOMENT                      0.00       TIME AVG. MOMENT      2.958E+03
                                                (FROM FORCE     FIELD)
 LARGEST RESIDUAL MOMENT            1.391E-07   AT NODE        352   DOF  4
   INSTANCE: PADTR                                                                           
 LARGEST INCREMENT OF ROTATION     -4.426E-05   AT NODE         27   DOF  5
   INSTANCE: PADL                                                                            
 LARGEST CORRECTION TO ROTATION     1.971E-15   AT NODE        352   DOF  5
   INSTANCE: PADL                                                                            
          THERE IS ZERO MOMENT    EVERYWHERE
          TIME INCREMENT MAY NOW INCREASE TO    2.250E-02

 ITERATION SUMMARY FOR THE INCREMENT:   1 TOTAL ITERATIONS, OF WHICH
   0 ARE SEVERE DISCONTINUITY ITERATIONS AND  1 ARE EQUILIBRIUM ITERATIONS.

 TIME INCREMENT COMPLETED  1.500E-02,  FRACTION OF STEP COMPLETED  3.500E-02
 STEP TIME COMPLETED       3.500E-02,  TOTAL TIME COMPLETED        0.235    


  INCREMENT     4 STARTS. ATTEMPT NUMBER  1, TIME INCREMENT  2.250E-02
 
	SYMMETRIC DIRECT SPARSE SOLVER RUNNING ON
 	1 HOST:        1 MPI RANK  x 4 THREADS
 	NUMBER OF EQUATIONS:     24759
 	NUMBER OF RHS:           1
 	NUMBER OF FLOPS:         8.260e+09

     CHECK POINT   START OF SOLVER    

     CHECK POINT  END OF SOLVER       

       ELAPSED USER TIME (SEC)      =  0.20000    
       ELAPSED SYSTEM TIME (SEC)    =   0.0000    
       ELAPSED TOTAL CPU TIME (SEC) =  0.20000    
       ELAPSED WALLCLOCK TIME (SEC) =          0

               CONVERGENCE CHECKS FOR EQUILIBRIUM ITERATION     1


 AVERAGE FORCE                       87.5       TIME AVG. FORCE        66.8    
 LARGEST RESIDUAL FORCE             1.428E-09   AT NODE        352   DOF  3
   INSTANCE: PADTL                                                                           
 LARGEST INCREMENT OF DISP.        -0.102       AT NODE        271   DOF  3
   INSTANCE: BEAM1                                                                           
 LARGEST CORRECTION TO DISP.       -3.919E-16   AT NODE        234   DOF  3
   INSTANCE: BEAM1                                                                           
          THE FORCE     EQUILIBRIUM RESPONSE WAS LINEAR IN THIS INCREMENT

 AVERAGE MOMENT                      0.00       TIME AVG. MOMENT      3.235E+03
                                                (FROM FORCE     FIELD)
 LARGEST RESIDUAL MOMENT           -1.253E-07   AT NODE        352   DOF  4
   INSTANCE: PADTL                                                                           
 LARGEST INCREMENT OF ROTATION      6.639E-05   AT NODE         27   DOF  5
   INSTANCE: PADR                                                                            
 LARGEST CORRECTION TO ROTATION     1.629E-19   AT NODE         27   DOF  4
   INSTANCE: PADTR                                                                           
          THERE IS ZERO MOMENT    EVERYWHERE
          TIME INCREMENT MAY NOW INCREASE TO    3.375E-02

 ITERATION SUMMARY FOR THE INCREMENT:   1 TOTAL ITERATIONS, OF WHICH
   0 ARE SEVERE DISCONTINUITY ITERATIONS AND  1 ARE EQUILIBRIUM ITERATIONS.

 TIME INCREMENT COMPLETED  2.250E-02,  FRACTION OF STEP COMPLETED  5.750E-02
 STEP TIME COMPLETED       5.750E-02,  TOTAL TIME COMPLETED        0.258    


  INCREMENT     5 STARTS. ATTEMPT NUMBER  1, TIME INCREMENT  3.375E-02
 
	SYMMETRIC DIRECT SPARSE SOLVER RUNNING ON
 	1 HOST:        1 MPI RANK  x 4 THREADS
 	NUMBER OF EQUATIONS:     24759
 	NUMBER OF RHS:           1
 	NUMBER OF FLOPS:         8.260e+09

     CHECK POINT   START OF SOLVER    

     CHECK POINT  END OF SOLVER       

       ELAPSED USER TIME (SEC)      =  0.20000    
       ELAPSED SYSTEM TIME (SEC)    =   0.0000    
       ELAPSED TOTAL CPU TIME (SEC) =  0.20000    
       ELAPSED WALLCLOCK TIME (SEC) =          0

               CONVERGENCE CHECKS FOR EQUILIBRIUM ITERATION     1


 AVERAGE FORCE                       113.       TIME AVG. FORCE        76.1    
 LARGEST RESIDUAL FORCE            -8.356E-09   AT NODE        352   DOF  3
   INSTANCE: PADTR                                                                           
 LARGEST INCREMENT OF DISP.        -0.153       AT NODE        225   DOF  3
   INSTANCE: BEAM1                                                                           
 LARGEST CORRECTION TO DISP.       -2.575E-16   AT NODE        443   DOF  3
   INSTANCE: BEAM1                                                                           
          THE FORCE     EQUILIBRIUM RESPONSE WAS LINEAR IN THIS INCREMENT

 AVERAGE MOMENT                      0.00       TIME AVG. MOMENT      3.606E+03
                                                (FROM FORCE     FIELD)
 LARGEST RESIDUAL MOMENT           -4.947E-07   AT NODE        352   DOF  4
   INSTANCE: PADTR                                                                           
 LARGEST INCREMENT OF ROTATION      9.959E-05   AT NODE         27   DOF  5
   INSTANCE: PADR                                                                            
 LARGEST CORRECTION TO ROTATION    -2.748E-19   AT NODE         27   DOF  4
   INSTANCE: PADTR                                                                           
          THERE IS ZERO MOMENT    EVERYWHERE
          TIME INCREMENT MAY NOW INCREASE TO    5.063E-02

 ITERATION SUMMARY FOR THE INCREMENT:   1 TOTAL ITERATIONS, OF WHICH
   0 ARE SEVERE DISCONTINUITY ITERATIONS AND  1 ARE EQUILIBRIUM ITERATIONS.

 TIME INCREMENT COMPLETED  3.375E-02,  FRACTION OF STEP COMPLETED  9.125E-02
 STEP TIME COMPLETED       9.125E-02,  TOTAL TIME COMPLETED        0.291    


  INCREMENT     6 STARTS. ATTEMPT NUMBER  1, TIME INCREMENT  5.063E-02
 
	SYMMETRIC DIRECT SPARSE SOLVER RUNNING ON
 	1 HOST:        1 MPI RANK  x 4 THREADS
 	NUMBER OF EQUATIONS:     24759
 	NUMBER OF RHS:           1
 	NUMBER OF FLOPS:         8.260e+09

     CHECK POINT   START OF SOLVER    

     CHECK POINT  END OF SOLVER       

       ELAPSED USER TIME (SEC)      =  0.10000    
       ELAPSED SYSTEM TIME (SEC)    =   0.0000    
       ELAPSED TOTAL CPU TIME (SEC) =  0.10000    
       ELAPSED WALLCLOCK TIME (SEC) =          0

               CONVERGENCE CHECKS FOR EQUILIBRIUM ITERATION     1


 AVERAGE FORCE                       152.       TIME AVG. FORCE        88.8    
 LARGEST RESIDUAL FORCE             -47.4       AT NODE        306   DOF  1
   INSTANCE: BEAM1                                                                           
 LARGEST INCREMENT OF DISP.        -0.248       AT NODE        225   DOF  3
   INSTANCE: BEAM1                                                                           
 LARGEST CORRECTION TO DISP.       -1.933E-02   AT NODE        227   DOF  3
   INSTANCE: BEAM1                                                                           
          FORCE     EQUILIBRIUM NOT ACHIEVED WITHIN TOLERANCE.

 AVERAGE MOMENT                      0.00       TIME AVG. MOMENT      4.108E+03
                                                (FROM FORCE     FIELD)
 LARGEST RESIDUAL MOMENT           -4.603E-07   AT NODE        352   DOF  4
   INSTANCE: PADTL                                                                           
 LARGEST INCREMENT OF ROTATION      1.590E-04   AT NODE         27   DOF  5
   INSTANCE: PADR                                                                            
 LARGEST CORRECTION TO ROTATION     9.567E-06   AT NODE         27   DOF  5
   INSTANCE: PADR                                                                            
          THERE IS ZERO MOMENT    EVERYWHERE
 
	UNSYMMETRIC DIRECT SPARSE SOLVER RUNNING ON
 	1 HOST:        1 MPI RANK  x 4 THREADS
 	NUMBER OF EQUATIONS:     24759
 	NUMBER OF RHS:           1
 	NUMBER OF FLOPS:         8.260e+09

     CHECK POINT   START OF SOLVER    

     CHECK POINT  END OF SOLVER       

       ELAPSED USER TIME (SEC)      =   2.7000    
       ELAPSED SYSTEM TIME (SEC)    =   0.0000    
       ELAPSED TOTAL CPU TIME (SEC) =   2.7000    
       ELAPSED WALLCLOCK TIME (SEC) =          1

               CONVERGENCE CHECKS FOR EQUILIBRIUM ITERATION     2


 AVERAGE FORCE                       153.       TIME AVG. FORCE        88.9    
 LARGEST RESIDUAL FORCE             -134.       AT NODE        359   DOF  1
   INSTANCE: BEAM1                                                                           
 LARGEST INCREMENT OF DISP.        -0.257       AT NODE        225   DOF  3
   INSTANCE: BEAM1                                                                           
 LARGEST CORRECTION TO DISP.       -8.632E-03   AT NODE        273   DOF  3
   INSTANCE: BEAM1                                                                           
          FORCE     EQUILIBRIUM NOT ACHIEVED WITHIN TOLERANCE.

 AVERAGE MOMENT                      0.00       TIME AVG. MOMENT      4.108E+03
                                                (FROM FORCE     FIELD)
 LARGEST RESIDUAL MOMENT           -4.217E-07   AT NODE        352   DOF  5
   INSTANCE: PADTL                                                                           
 LARGEST INCREMENT OF ROTATION      1.632E-04   AT NODE         27   DOF  5
   INSTANCE: PADR                                                                            
 LARGEST CORRECTION TO ROTATION    -4.218E-06   AT NODE         27   DOF  5
   INSTANCE: PADTL                                                                           
          THERE IS ZERO MOMENT    EVERYWHERE
 
	UNSYMMETRIC DIRECT SPARSE SOLVER RUNNING ON
 	1 HOST:        1 MPI RANK  x 4 THREADS
 	NUMBER OF EQUATIONS:     24759
 	NUMBER OF RHS:           1
 	NUMBER OF FLOPS:         8.260e+09

     CHECK POINT   START OF SOLVER    

     CHECK POINT  END OF SOLVER       

       ELAPSED USER TIME (SEC)      =   2.4000    
       ELAPSED SYSTEM TIME (SEC)    =   0.0000    
       ELAPSED TOTAL CPU TIME (SEC) =   2.4000    
       ELAPSED WALLCLOCK TIME (SEC) =          1

               CONVERGENCE CHECKS FOR EQUILIBRIUM ITERATION     3


 AVERAGE FORCE                       153.       TIME AVG. FORCE        89.0    
 LARGEST RESIDUAL FORCE             -9.80       AT NODE       5040   DOF  1
   INSTANCE: BEAM1                                                                           
 LARGEST INCREMENT OF DISP.        -0.257       AT NODE        225   DOF  3
   INSTANCE: BEAM1                                                                           
 LARGEST CORRECTION TO DISP.       -3.301E-04   AT NODE         24   DOF  1
   INSTANCE: BEAM1                                                                           
          FORCE     EQUILIBRIUM NOT ACHIEVED WITHIN TOLERANCE.

 AVERAGE MOMENT                      0.00       TIME AVG. MOMENT      4.108E+03
                                                (FROM FORCE     FIELD)
 LARGEST RESIDUAL MOMENT            4.258E-07   AT NODE        352   DOF  5
   INSTANCE: PADTL                                                                           
 LARGEST INCREMENT OF ROTATION     -1.632E-04   AT NODE         27   DOF  5
   INSTANCE: PADL                                                                            
 LARGEST CORRECTION TO ROTATION     3.707E-08   AT NODE        352   DOF  5
   INSTANCE: PADTL                                                                           
          THERE IS ZERO MOMENT    EVERYWHERE
 
	UNSYMMETRIC DIRECT SPARSE SOLVER RUNNING ON
 	1 HOST:        1 MPI RANK  x 4 THREADS
 	NUMBER OF EQUATIONS:     24759
 	NUMBER OF RHS:           1
 	NUMBER OF FLOPS:         8.260e+09

     CHECK POINT   START OF SOLVER    

     CHECK POINT  END OF SOLVER       

       ELAPSED USER TIME (SEC)      =   2.2000    
       ELAPSED SYSTEM TIME (SEC)    =   0.0000    
       ELAPSED TOTAL CPU TIME (SEC) =   2.2000    
       ELAPSED WALLCLOCK TIME (SEC) =          1

               CONVERGENCE CHECKS FOR EQUILIBRIUM ITERATION     4


 AVERAGE FORCE                       153.       TIME AVG. FORCE        89.0    
 LARGEST RESIDUAL FORCE            -4.985E-02   AT NODE       6167   DOF  1
   INSTANCE: BEAM1                                                                           
 LARGEST INCREMENT OF DISP.        -0.257       AT NODE        225   DOF  3
   INSTANCE: BEAM1                                                                           
 LARGEST CORRECTION TO DISP.       -2.456E-05   AT NODE       1861   DOF  1
   INSTANCE: BEAM1                                                                           
          THE FORCE     EQUILIBRIUM EQUATIONS HAVE CONVERGED

 AVERAGE MOMENT                      0.00       TIME AVG. MOMENT      4.108E+03
                                                (FROM FORCE     FIELD)
 LARGEST RESIDUAL MOMENT           -1.826E-07   AT NODE        352   DOF  5
   INSTANCE: PADTL                                                                           
 LARGEST INCREMENT OF ROTATION     -1.632E-04   AT NODE         27   DOF  5
   INSTANCE: PADL                                                                            
 LARGEST CORRECTION TO ROTATION     7.647E-09   AT NODE         27   DOF  5
   INSTANCE: PADR                                                                            
          THERE IS ZERO MOMENT    EVERYWHERE
          TIME INCREMENT MAY NOW INCREASE TO    7.594E-02

 ITERATION SUMMARY FOR THE INCREMENT:   4 TOTAL ITERATIONS, OF WHICH
   0 ARE SEVERE DISCONTINUITY ITERATIONS AND  4 ARE EQUILIBRIUM ITERATIONS.

 TIME INCREMENT COMPLETED  5.063E-02,  FRACTION OF STEP COMPLETED  0.142    
 STEP TIME COMPLETED       0.142    ,  TOTAL TIME COMPLETED        0.342    


  INCREMENT     7 STARTS. ATTEMPT NUMBER  1, TIME INCREMENT  7.594E-02
 
	UNSYMMETRIC DIRECT SPARSE SOLVER RUNNING ON
 	1 HOST:        1 MPI RANK  x 4 THREADS
 	NUMBER OF EQUATIONS:     24759
 	NUMBER OF RHS:           1
 	NUMBER OF FLOPS:         8.260e+09

     CHECK POINT   START OF SOLVER    

     CHECK POINT  END OF SOLVER       

       ELAPSED USER TIME (SEC)      =   2.4000    
       ELAPSED SYSTEM TIME (SEC)    =   0.0000    
       ELAPSED TOTAL CPU TIME (SEC) =   2.4000    
       ELAPSED WALLCLOCK TIME (SEC) =          0
 

 ***WARNING: THE SYSTEM MATRIX HAS 149 NEGATIVE EIGENVALUES.

     NEGATIVE EIGENVALUES MEAN THAT THE SYSTEM MATRIX IS NOT 
     POSITIVE DEFINITE:
     FOR EXAMPLE, A BIFURCATION (BUCKLING) LOAD MAY HAVE BEEN EXCEEDED.

               CONVERGENCE CHECKS FOR EQUILIBRIUM ITERATION     1


 AVERAGE FORCE                       419.       TIME AVG. FORCE        136.    
 LARGEST RESIDUAL FORCE             1.653E+05   AT NODE       5745   DOF  1
   INSTANCE: BEAM1                                                                           
 LARGEST INCREMENT OF DISP.        -0.672       AT NODE       1927   DOF  3
   INSTANCE: BEAM1                                                                           
 LARGEST CORRECTION TO DISP.       -0.287       AT NODE       1927   DOF  3
   INSTANCE: BEAM1                                                                           
          FORCE     EQUILIBRIUM NOT ACHIEVED WITHIN TOLERANCE.

 AVERAGE MOMENT                      0.00       TIME AVG. MOMENT      4.800E+03
                                                (FROM FORCE     FIELD)
 LARGEST RESIDUAL MOMENT            1.570E-06   AT NODE        352   DOF  5
   INSTANCE: PADTR                                                                           
 LARGEST INCREMENT OF ROTATION     -3.695E-04   AT NODE         27   DOF  5
   INSTANCE: PADL                                                                            
 LARGEST CORRECTION TO ROTATION    -1.247E-04   AT NODE        352   DOF  5
   INSTANCE: PADL                                                                            
          THERE IS ZERO MOMENT    EVERYWHERE
 
	UNSYMMETRIC DIRECT SPARSE SOLVER RUNNING ON
 	1 HOST:        1 MPI RANK  x 4 THREADS
 	NUMBER OF EQUATIONS:     24759
 	NUMBER OF RHS:           1
 	NUMBER OF FLOPS:         8.260e+09

     CHECK POINT   START OF SOLVER    

     CHECK POINT  END OF SOLVER       

       ELAPSED USER TIME (SEC)      =   2.2000    
       ELAPSED SYSTEM TIME (SEC)    =   0.0000    
       ELAPSED TOTAL CPU TIME (SEC) =   2.2000    
       ELAPSED WALLCLOCK TIME (SEC) =          0
 

 ***WARNING: THE SYSTEM MATRIX HAS 173 NEGATIVE EIGENVALUES.
             EXPLANATIONS ARE SUGGESTED AFTER THE FIRST OCCURRENCE OF THIS MESSAGE.

               CONVERGENCE CHECKS FOR EQUILIBRIUM ITERATION     2


 AVERAGE FORCE                      3.774E+03   TIME AVG. FORCE        615.    
 LARGEST RESIDUAL FORCE             2.146E+06   AT NODE       5666   DOF  1
   INSTANCE: BEAM1                                                                           
 LARGEST INCREMENT OF DISP.          13.8       AT NODE        301   DOF  3
   INSTANCE: BEAM1                                                                           
 LARGEST CORRECTION TO DISP.         14.4       AT NODE        301   DOF  3
   INSTANCE: BEAM1                                                                           
          FORCE     EQUILIBRIUM NOT ACHIEVED WITHIN TOLERANCE.

 AVERAGE MOMENT                      0.00       TIME AVG. MOMENT      4.800E+03
                                                (FROM FORCE     FIELD)
 LARGEST RESIDUAL MOMENT           -3.307E-05   AT NODE        352   DOF  4
   INSTANCE: PADTR                                                                           
 LARGEST INCREMENT OF ROTATION      3.701E-03   AT NODE         27   DOF  5
   INSTANCE: PADL                                                                            
 LARGEST CORRECTION TO ROTATION     4.071E-03   AT NODE         27   DOF  5
   INSTANCE: PADL                                                                            
          THERE IS ZERO MOMENT    EVERYWHERE
 
	UNSYMMETRIC DIRECT SPARSE SOLVER RUNNING ON
 	1 HOST:        1 MPI RANK  x 4 THREADS
 	NUMBER OF EQUATIONS:     24759
 	NUMBER OF RHS:           1
 	NUMBER OF FLOPS:         8.260e+09

     CHECK POINT   START OF SOLVER    

     CHECK POINT  END OF SOLVER       

       ELAPSED USER TIME (SEC)      =   2.4000    
       ELAPSED SYSTEM TIME (SEC)    =  0.10000    
       ELAPSED TOTAL CPU TIME (SEC) =   2.5000    
       ELAPSED WALLCLOCK TIME (SEC) =          1
 

 ***WARNING: THE SYSTEM MATRIX HAS 160 NEGATIVE EIGENVALUES.
             EXPLANATIONS ARE SUGGESTED AFTER THE FIRST OCCURRENCE OF THIS MESSAGE.

 ***WARNING: THE PLASTICITY/CREEP/CONNECTOR FRICTION ALGORITHM DID NOT CONVERGE 
             AT 8 POINTS
 

 ***NOTE: MATERIAL CALCULATIONS FAILED TO CONVERGE OR WERE NOT ATTEMPTED AT ONE 
          OR MORE POINTS. CONVERGENCE IS JUDGED UNLIKELY.


  INCREMENT     7 STARTS. ATTEMPT NUMBER  2, TIME INCREMENT  1.898E-02
 
	UNSYMMETRIC DIRECT SPARSE SOLVER RUNNING ON
 	1 HOST:        1 MPI RANK  x 4 THREADS
 	NUMBER OF EQUATIONS:     24759
 	NUMBER OF RHS:           1
 	NUMBER OF FLOPS:         8.260e+09

     CHECK POINT   START OF SOLVER    

     CHECK POINT  END OF SOLVER       

       ELAPSED USER TIME (SEC)      =   2.4000    
       ELAPSED SYSTEM TIME (SEC)    =   0.0000    
       ELAPSED TOTAL CPU TIME (SEC) =   2.4000    
       ELAPSED WALLCLOCK TIME (SEC) =          0

               CONVERGENCE CHECKS FOR EQUILIBRIUM ITERATION     1


 AVERAGE FORCE                       168.       TIME AVG. FORCE        100.    
 LARGEST RESIDUAL FORCE             -125.       AT NODE       3130   DOF  1
   INSTANCE: BEAM1                                                                           
 LARGEST INCREMENT OF DISP.        -0.121       AT NODE        271   DOF  3
   INSTANCE: BEAM1                                                                           
 LARGEST CORRECTION TO DISP.       -2.427E-02   AT NODE        269   DOF  3
   INSTANCE: BEAM1                                                                           
          FORCE     EQUILIBRIUM NOT ACHIEVED WITHIN TOLERANCE.

 AVERAGE MOMENT                      0.00       TIME AVG. MOMENT      4.800E+03
                                                (FROM FORCE     FIELD)
 LARGEST RESIDUAL MOMENT           -2.087E-07   AT NODE        352   DOF  4
   INSTANCE: PADTR                                                                           
 LARGEST INCREMENT OF ROTATION      7.360E-05   AT NODE         27   DOF  5
   INSTANCE: PADR                                                                            
 LARGEST CORRECTION TO ROTATION     1.241E-05   AT NODE         27   DOF  5
   INSTANCE: PADR                                                                            
          THERE IS ZERO MOMENT    EVERYWHERE
 
	UNSYMMETRIC DIRECT SPARSE SOLVER RUNNING ON
 	1 HOST:        1 MPI RANK  x 4 THREADS
 	NUMBER OF EQUATIONS:     24759
 	NUMBER OF RHS:           1
 	NUMBER OF FLOPS:         8.260e+09

     CHECK POINT   START OF SOLVER    

     CHECK POINT  END OF SOLVER       

       ELAPSED USER TIME (SEC)      =   2.5000    
       ELAPSED SYSTEM TIME (SEC)    =  0.10000    
       ELAPSED TOTAL CPU TIME (SEC) =   2.6000    
       ELAPSED WALLCLOCK TIME (SEC) =          0

               CONVERGENCE CHECKS FOR EQUILIBRIUM ITERATION     2


 AVERAGE FORCE                       169.       TIME AVG. FORCE        100.    
 LARGEST RESIDUAL FORCE             -225.       AT NODE        209   DOF  1
   INSTANCE: BEAM1                                                                           
 LARGEST INCREMENT OF DISP.        -0.122       AT NODE        271   DOF  3
   INSTANCE: BEAM1                                                                           
 LARGEST CORRECTION TO DISP.       -2.614E-03   AT NODE        265   DOF  1
   INSTANCE: BEAM1                                                                           
          FORCE     EQUILIBRIUM NOT ACHIEVED WITHIN TOLERANCE.

 AVERAGE MOMENT                      0.00       TIME AVG. MOMENT      4.800E+03
                                                (FROM FORCE     FIELD)
 LARGEST RESIDUAL MOMENT           -1.638E-07   AT NODE        352   DOF  4
   INSTANCE: PADTL                                                                           
 LARGEST INCREMENT OF ROTATION      7.432E-05   AT NODE         27   DOF  5
   INSTANCE: PADR                                                                            
 LARGEST CORRECTION TO ROTATION     7.399E-07   AT NODE         27   DOF  5
   INSTANCE: PADTR                                                                           
          THERE IS ZERO MOMENT    EVERYWHERE
 
	UNSYMMETRIC DIRECT SPARSE SOLVER RUNNING ON
 	1 HOST:        1 MPI RANK  x 4 THREADS
 	NUMBER OF EQUATIONS:     24759
 	NUMBER OF RHS:           1
 	NUMBER OF FLOPS:         8.260e+09

     CHECK POINT   START OF SOLVER    

     CHECK POINT  END OF SOLVER       

       ELAPSED USER TIME (SEC)      =   2.6000    
       ELAPSED SYSTEM TIME (SEC)    =   0.0000    
       ELAPSED TOTAL CPU TIME (SEC) =   2.6000    
       ELAPSED WALLCLOCK TIME (SEC) =          0

               CONVERGENCE CHECKS FOR EQUILIBRIUM ITERATION     3


 AVERAGE FORCE                       169.       TIME AVG. FORCE        100.    
 LARGEST RESIDUAL FORCE             -391.       AT NODE       4951   DOF  1
   INSTANCE: BEAM1                                                                           
 LARGEST INCREMENT OF DISP.        -0.121       AT NODE        225   DOF  3
   INSTANCE: BEAM1                                                                           
 LARGEST CORRECTION TO DISP.        2.468E-03   AT NODE       1798   DOF  1
   INSTANCE: BEAM1                                                                           
          FORCE     EQUILIBRIUM NOT ACHIEVED WITHIN TOLERANCE.

 AVERAGE MOMENT                      0.00       TIME AVG. MOMENT      4.800E+03
                                                (FROM FORCE     FIELD)
 LARGEST RESIDUAL MOMENT           -7.062E-08   AT NODE        352   DOF  6
   INSTANCE: PADTL                                                                           
 LARGEST INCREMENT OF ROTATION     -7.359E-05   AT NODE         27   DOF  5
   INSTANCE: PADL                                                                            
 LARGEST CORRECTION TO ROTATION    -8.113E-07   AT NODE         27   DOF  5
   INSTANCE: PADTR                                                                           
          THERE IS ZERO MOMENT    EVERYWHERE
 
	UNSYMMETRIC DIRECT SPARSE SOLVER RUNNING ON
 	1 HOST:        1 MPI RANK  x 4 THREADS
 	NUMBER OF EQUATIONS:     24759
 	NUMBER OF RHS:           1
 	NUMBER OF FLOPS:         8.260e+09

     CHECK POINT   START OF SOLVER    

     CHECK POINT  END OF SOLVER       

       ELAPSED USER TIME (SEC)      =   2.4000    
       ELAPSED SYSTEM TIME (SEC)    =  0.10000    
       ELAPSED TOTAL CPU TIME (SEC) =   2.5000    
       ELAPSED WALLCLOCK TIME (SEC) =          1
 

 ***WARNING: THE SYSTEM MATRIX HAS 2 NEGATIVE EIGENVALUES.
             EXPLANATIONS ARE SUGGESTED AFTER THE FIRST OCCURRENCE OF THIS MESSAGE.

               CONVERGENCE CHECKS FOR EQUILIBRIUM ITERATION     4


 AVERAGE FORCE                       169.       TIME AVG. FORCE        100.    
 LARGEST RESIDUAL FORCE             -191.       AT NODE       2414   DOF  1
   INSTANCE: BEAM1                                                                           
 LARGEST INCREMENT OF DISP.        -0.122       AT NODE        225   DOF  3
   INSTANCE: BEAM1                                                                           
 LARGEST CORRECTION TO DISP.       -1.705E-03   AT NODE       2415   DOF  1
   INSTANCE: BEAM1                                                                           
          FORCE     EQUILIBRIUM NOT ACHIEVED WITHIN TOLERANCE.

 AVERAGE MOMENT                      0.00       TIME AVG. MOMENT      4.800E+03
                                                (FROM FORCE     FIELD)
 LARGEST RESIDUAL MOMENT            1.843E-07   AT NODE        352   DOF  5
   INSTANCE: PADTR                                                                           
 LARGEST INCREMENT OF ROTATION      7.412E-05   AT NODE         27   DOF  5
   INSTANCE: PADR                                                                            
 LARGEST CORRECTION TO ROTATION     5.843E-07   AT NODE         27   DOF  5
   INSTANCE: PADTR                                                                           
          THERE IS ZERO MOMENT    EVERYWHERE
 
	UNSYMMETRIC DIRECT SPARSE SOLVER RUNNING ON
 	1 HOST:        1 MPI RANK  x 4 THREADS
 	NUMBER OF EQUATIONS:     24759
 	NUMBER OF RHS:           1
 	NUMBER OF FLOPS:         8.260e+09

     CHECK POINT   START OF SOLVER    

     CHECK POINT  END OF SOLVER       

       ELAPSED USER TIME (SEC)      =   2.5000    
       ELAPSED SYSTEM TIME (SEC)    =   0.0000    
       ELAPSED TOTAL CPU TIME (SEC) =   2.5000    
       ELAPSED WALLCLOCK TIME (SEC) =          1

               CONVERGENCE CHECKS FOR EQUILIBRIUM ITERATION     5


 AVERAGE FORCE                       169.       TIME AVG. FORCE        100.    
 LARGEST RESIDUAL FORCE             -44.6       AT NODE       2416   DOF  1
   INSTANCE: BEAM1                                                                           
 LARGEST INCREMENT OF DISP.        -0.122       AT NODE        225   DOF  3
   INSTANCE: BEAM1                                                                           
 LARGEST CORRECTION TO DISP.       -1.083E-03   AT NODE       2414   DOF  1
   INSTANCE: BEAM1                                                                           
          FORCE     EQUILIBRIUM NOT ACHIEVED WITHIN TOLERANCE.

 AVERAGE MOMENT                      0.00       TIME AVG. MOMENT      4.800E+03
                                                (FROM FORCE     FIELD)
 LARGEST RESIDUAL MOMENT            2.615E-07   AT NODE        352   DOF  4
   INSTANCE: PADTR                                                                           
 LARGEST INCREMENT OF ROTATION      7.421E-05   AT NODE         27   DOF  5
   INSTANCE: PADR                                                                            
 LARGEST CORRECTION TO ROTATION    -8.953E-08   AT NODE        352   DOF  5
   INSTANCE: PADL                                                                            
          THERE IS ZERO MOMENT    EVERYWHERE
 
	UNSYMMETRIC DIRECT SPARSE SOLVER RUNNING ON
 	1 HOST:        1 MPI RANK  x 4 THREADS
 	NUMBER OF EQUATIONS:     24759
 	NUMBER OF RHS:           1
 	NUMBER OF FLOPS:         8.260e+09

     CHECK POINT   START OF SOLVER    

     CHECK POINT  END OF SOLVER       

       ELAPSED USER TIME (SEC)      =   2.5000    
       ELAPSED SYSTEM TIME (SEC)    =   0.0000    
       ELAPSED TOTAL CPU TIME (SEC) =   2.5000    
       ELAPSED WALLCLOCK TIME (SEC) =          1
 

 ***WARNING: THE SYSTEM MATRIX HAS 2 NEGATIVE EIGENVALUES.
             EXPLANATIONS ARE SUGGESTED AFTER THE FIRST OCCURRENCE OF THIS MESSAGE.

               CONVERGENCE CHECKS FOR EQUILIBRIUM ITERATION     6


 AVERAGE FORCE                       171.       TIME AVG. FORCE        101.    
 LARGEST RESIDUAL FORCE             7.571E+03   AT NODE       2415   DOF  1
   INSTANCE: BEAM1                                                                           
 LARGEST INCREMENT OF DISP.        -0.131       AT NODE       1936   DOF  3
   INSTANCE: BEAM1                                                                           
 LARGEST CORRECTION TO DISP.       -2.343E-02   AT NODE       1828   DOF  1
   INSTANCE: BEAM1                                                                           
          FORCE     EQUILIBRIUM NOT ACHIEVED WITHIN TOLERANCE.

 AVERAGE MOMENT                      0.00       TIME AVG. MOMENT      4.800E+03
                                                (FROM FORCE     FIELD)
 LARGEST RESIDUAL MOMENT            2.326E-07   AT NODE        352   DOF  4
   INSTANCE: PADTR                                                                           
 LARGEST INCREMENT OF ROTATION     -7.908E-05   AT NODE         27   DOF  5
   INSTANCE: PADL                                                                            
 LARGEST CORRECTION TO ROTATION    -5.313E-06   AT NODE         27   DOF  5
   INSTANCE: PADTL                                                                           
          THERE IS ZERO MOMENT    EVERYWHERE
 

 ***NOTE: THE SOLUTION APPEARS TO BE DIVERGING. CONVERGENCE IS JUDGED UNLIKELY.


  INCREMENT     7 STARTS. ATTEMPT NUMBER  3, TIME INCREMENT  4.746E-03
 
	UNSYMMETRIC DIRECT SPARSE SOLVER RUNNING ON
 	1 HOST:        1 MPI RANK  x 4 THREADS
 	NUMBER OF EQUATIONS:     24759
 	NUMBER OF RHS:           1
 	NUMBER OF FLOPS:         8.260e+09

     CHECK POINT   START OF SOLVER    

     CHECK POINT  END OF SOLVER       

       ELAPSED USER TIME (SEC)      =   2.3000    
       ELAPSED SYSTEM TIME (SEC)    =  0.10000    
       ELAPSED TOTAL CPU TIME (SEC) =   2.4000    
       ELAPSED WALLCLOCK TIME (SEC) =          0

               CONVERGENCE CHECKS FOR EQUILIBRIUM ITERATION     1


 AVERAGE FORCE                       157.       TIME AVG. FORCE        98.7    
 LARGEST RESIDUAL FORCE             -35.5       AT NODE       4852   DOF  1
   INSTANCE: BEAM1                                                                           
 LARGEST INCREMENT OF DISP.        -2.485E-02   AT NODE        271   DOF  3
   INSTANCE: BEAM1                                                                           
 LARGEST CORRECTION TO DISP.       -2.485E-02   AT NODE        271   DOF  3
   INSTANCE: BEAM1                                                                           
          FORCE     EQUILIBRIUM NOT ACHIEVED WITHIN TOLERANCE.

 AVERAGE MOMENT                      0.00       TIME AVG. MOMENT      4.800E+03
                                                (FROM FORCE     FIELD)
 LARGEST RESIDUAL MOMENT            2.712E-07   AT NODE        352   DOF  4
   INSTANCE: PADTR                                                                           
 LARGEST INCREMENT OF ROTATION      1.566E-05   AT NODE         27   DOF  5
   INSTANCE: PADR                                                                            
 LARGEST CORRECTION TO ROTATION     1.566E-05   AT NODE         27   DOF  5
   INSTANCE: PADR                                                                            
          THERE IS ZERO MOMENT    EVERYWHERE
 
	UNSYMMETRIC DIRECT SPARSE SOLVER RUNNING ON
 	1 HOST:        1 MPI RANK  x 4 THREADS
 	NUMBER OF EQUATIONS:     24759
 	NUMBER OF RHS:           1
 	NUMBER OF FLOPS:         8.260e+09

     CHECK POINT   START OF SOLVER    

     CHECK POINT  END OF SOLVER       

       ELAPSED USER TIME (SEC)      =   2.5000    
       ELAPSED SYSTEM TIME (SEC)    =   0.0000    
       ELAPSED TOTAL CPU TIME (SEC) =   2.5000    
       ELAPSED WALLCLOCK TIME (SEC) =          1

               CONVERGENCE CHECKS FOR EQUILIBRIUM ITERATION     2


 AVERAGE FORCE                       157.       TIME AVG. FORCE        98.7    
 LARGEST RESIDUAL FORCE             -2.65       AT NODE       4842   DOF  1
   INSTANCE: BEAM1                                                                           
 LARGEST INCREMENT OF DISP.        -2.661E-02   AT NODE        271   DOF  3
   INSTANCE: BEAM1                                                                           
 LARGEST CORRECTION TO DISP.       -1.768E-03   AT NODE        226   DOF  3
   INSTANCE: BEAM1                                                                           
          FORCE     EQUILIBRIUM NOT ACHIEVED WITHIN TOLERANCE.

 AVERAGE MOMENT                      0.00       TIME AVG. MOMENT      4.800E+03
                                                (FROM FORCE     FIELD)
 LARGEST RESIDUAL MOMENT            1.918E-08   AT NODE        352   DOF  5
   INSTANCE: PADTR                                                                           
 LARGEST INCREMENT OF ROTATION      1.656E-05   AT NODE         27   DOF  5
   INSTANCE: PADR                                                                            
 LARGEST CORRECTION TO ROTATION    -9.013E-07   AT NODE         27   DOF  5
   INSTANCE: PADL                                                                            
          THERE IS ZERO MOMENT    EVERYWHERE
 
	UNSYMMETRIC DIRECT SPARSE SOLVER RUNNING ON
 	1 HOST:        1 MPI RANK  x 4 THREADS
 	NUMBER OF EQUATIONS:     24759
 	NUMBER OF RHS:           1
 	NUMBER OF FLOPS:         8.260e+09

     CHECK POINT   START OF SOLVER    

     CHECK POINT  END OF SOLVER       

       ELAPSED USER TIME (SEC)      =   2.5000    
       ELAPSED SYSTEM TIME (SEC)    =   0.0000    
       ELAPSED TOTAL CPU TIME (SEC) =   2.5000    
       ELAPSED WALLCLOCK TIME (SEC) =          1

               CONVERGENCE CHECKS FOR EQUILIBRIUM ITERATION     3


 AVERAGE FORCE                       157.       TIME AVG. FORCE        98.7    
 LARGEST RESIDUAL FORCE             3.919E-04   AT NODE       5853   DOF  1
   INSTANCE: BEAM1                                                                           
 LARGEST INCREMENT OF DISP.        -2.661E-02   AT NODE        225   DOF  3
   INSTANCE: BEAM1                                                                           
 LARGEST CORRECTION TO DISP.       -4.871E-06   AT NODE       2402   DOF  3
   INSTANCE: BEAM1                                                                           
          THE FORCE     EQUILIBRIUM EQUATIONS HAVE CONVERGED

 AVERAGE MOMENT                      0.00       TIME AVG. MOMENT      4.800E+03
                                                (FROM FORCE     FIELD)
 LARGEST RESIDUAL MOMENT           -3.964E-08   AT NODE        352   DOF  5
   INSTANCE: PADTL                                                                           
 LARGEST INCREMENT OF ROTATION     -1.657E-05   AT NODE         27   DOF  5
   INSTANCE: PADL                                                                            
 LARGEST CORRECTION TO ROTATION    -2.345E-09   AT NODE         27   DOF  5
   INSTANCE: PADL                                                                            
          THERE IS ZERO MOMENT    EVERYWHERE
          TIME INCREMENT MAY NOW INCREASE TO    7.119E-03

 ITERATION SUMMARY FOR THE INCREMENT:   3 TOTAL ITERATIONS, OF WHICH
   0 ARE SEVERE DISCONTINUITY ITERATIONS AND  3 ARE EQUILIBRIUM ITERATIONS.

 TIME INCREMENT COMPLETED  4.746E-03,  FRACTION OF STEP COMPLETED  0.147    
 STEP TIME COMPLETED       0.147    ,  TOTAL TIME COMPLETED        0.347    


  INCREMENT     8 STARTS. ATTEMPT NUMBER  1, TIME INCREMENT  7.119E-03
 
	UNSYMMETRIC DIRECT SPARSE SOLVER RUNNING ON
 	1 HOST:        1 MPI RANK  x 4 THREADS
 	NUMBER OF EQUATIONS:     24759
 	NUMBER OF RHS:           1
 	NUMBER OF FLOPS:         8.260e+09

     CHECK POINT   START OF SOLVER    

     CHECK POINT  END OF SOLVER       

       ELAPSED USER TIME (SEC)      =   2.4000    
       ELAPSED SYSTEM TIME (SEC)    =   0.0000    
       ELAPSED TOTAL CPU TIME (SEC) =   2.4000    
       ELAPSED WALLCLOCK TIME (SEC) =          0

               CONVERGENCE CHECKS FOR EQUILIBRIUM ITERATION     1


 AVERAGE FORCE                       163.       TIME AVG. FORCE        107.    
 LARGEST RESIDUAL FORCE              9.70       AT NODE       6365   DOF  1
   INSTANCE: BEAM1                                                                           
 LARGEST INCREMENT OF DISP.        -4.420E-02   AT NODE        225   DOF  3
   INSTANCE: BEAM1                                                                           
 LARGEST CORRECTION TO DISP.       -4.284E-03   AT NODE        227   DOF  3
   INSTANCE: BEAM1                                                                           
          FORCE     EQUILIBRIUM NOT ACHIEVED WITHIN TOLERANCE.

 AVERAGE MOMENT                      0.00       TIME AVG. MOMENT      5.326E+03
                                                (FROM FORCE     FIELD)
 LARGEST RESIDUAL MOMENT           -7.426E-08   AT NODE        352   DOF  4
   INSTANCE: PADTL                                                                           
 LARGEST INCREMENT OF ROTATION      2.705E-05   AT NODE         27   DOF  5
   INSTANCE: PADR                                                                            
 LARGEST CORRECTION TO ROTATION     2.199E-06   AT NODE        352   DOF  5
   INSTANCE: PADR                                                                            
          THERE IS ZERO MOMENT    EVERYWHERE
 
	UNSYMMETRIC DIRECT SPARSE SOLVER RUNNING ON
 	1 HOST:        1 MPI RANK  x 4 THREADS
 	NUMBER OF EQUATIONS:     24759
 	NUMBER OF RHS:           1
 	NUMBER OF FLOPS:         8.260e+09

     CHECK POINT   START OF SOLVER    

     CHECK POINT  END OF SOLVER       

       ELAPSED USER TIME (SEC)      =   2.4000    
       ELAPSED SYSTEM TIME (SEC)    =  0.10000    
       ELAPSED TOTAL CPU TIME (SEC) =   2.5000    
       ELAPSED WALLCLOCK TIME (SEC) =          0

               CONVERGENCE CHECKS FOR EQUILIBRIUM ITERATION     2


 AVERAGE FORCE                       163.       TIME AVG. FORCE        107.    
 LARGEST RESIDUAL FORCE            -0.372       AT NODE       3665   DOF  1
   INSTANCE: BEAM1                                                                           
 LARGEST INCREMENT OF DISP.        -4.421E-02   AT NODE        225   DOF  3
   INSTANCE: BEAM1                                                                           
 LARGEST CORRECTION TO DISP.       -2.455E-05   AT NODE        543   DOF  1
   INSTANCE: BEAM1                                                                           
          THE FORCE     EQUILIBRIUM EQUATIONS HAVE CONVERGED

 AVERAGE MOMENT                      0.00       TIME AVG. MOMENT      5.326E+03
                                                (FROM FORCE     FIELD)
 LARGEST RESIDUAL MOMENT            3.859E-08   AT NODE        352   DOF  4
   INSTANCE: PADTL                                                                           
 LARGEST INCREMENT OF ROTATION      2.706E-05   AT NODE         27   DOF  5
   INSTANCE: PADR                                                                            
 LARGEST CORRECTION TO ROTATION    -8.012E-09   AT NODE         27   DOF  5
   INSTANCE: PADL                                                                            
          THERE IS ZERO MOMENT    EVERYWHERE
          TIME INCREMENT MAY NOW INCREASE TO    1.068E-02

 ITERATION SUMMARY FOR THE INCREMENT:   2 TOTAL ITERATIONS, OF WHICH
   0 ARE SEVERE DISCONTINUITY ITERATIONS AND  2 ARE EQUILIBRIUM ITERATIONS.

 TIME INCREMENT COMPLETED  7.119E-03,  FRACTION OF STEP COMPLETED  0.154    
 STEP TIME COMPLETED       0.154    ,  TOTAL TIME COMPLETED        0.354    


  INCREMENT     9 STARTS. ATTEMPT NUMBER  1, TIME INCREMENT  1.068E-02
 
	UNSYMMETRIC DIRECT SPARSE SOLVER RUNNING ON
 	1 HOST:        1 MPI RANK  x 4 THREADS
 	NUMBER OF EQUATIONS:     24759
 	NUMBER OF RHS:           1
 	NUMBER OF FLOPS:         8.260e+09

     CHECK POINT   START OF SOLVER    

     CHECK POINT  END OF SOLVER       

       ELAPSED USER TIME (SEC)      =   2.3000    
       ELAPSED SYSTEM TIME (SEC)    =   0.0000    
       ELAPSED TOTAL CPU TIME (SEC) =   2.3000    
       ELAPSED WALLCLOCK TIME (SEC) =          0

               CONVERGENCE CHECKS FOR EQUILIBRIUM ITERATION     1


 AVERAGE FORCE                       172.       TIME AVG. FORCE        114.    
 LARGEST RESIDUAL FORCE             -18.1       AT NODE       3130   DOF  1
   INSTANCE: BEAM1                                                                           
 LARGEST INCREMENT OF DISP.        -7.249E-02   AT NODE        225   DOF  3
   INSTANCE: BEAM1                                                                           
 LARGEST CORRECTION TO DISP.       -6.174E-03   AT NODE        271   DOF  3
   INSTANCE: BEAM1                                                                           
          FORCE     EQUILIBRIUM NOT ACHIEVED WITHIN TOLERANCE.

 AVERAGE MOMENT                      0.00       TIME AVG. MOMENT      5.760E+03
                                                (FROM FORCE     FIELD)
 LARGEST RESIDUAL MOMENT            1.906E-07   AT NODE        352   DOF  5
   INSTANCE: PADTR                                                                           
 LARGEST INCREMENT OF ROTATION      4.384E-05   AT NODE         27   DOF  5
   INSTANCE: PADR                                                                            
 LARGEST CORRECTION TO ROTATION     3.256E-06   AT NODE         27   DOF  5
   INSTANCE: PADR                                                                            
          THERE IS ZERO MOMENT    EVERYWHERE
 
	UNSYMMETRIC DIRECT SPARSE SOLVER RUNNING ON
 	1 HOST:        1 MPI RANK  x 4 THREADS
 	NUMBER OF EQUATIONS:     24759
 	NUMBER OF RHS:           1
 	NUMBER OF FLOPS:         8.260e+09

     CHECK POINT   START OF SOLVER    

     CHECK POINT  END OF SOLVER       

       ELAPSED USER TIME (SEC)      =   2.4000    
       ELAPSED SYSTEM TIME (SEC)    =   0.0000    
       ELAPSED TOTAL CPU TIME (SEC) =   2.4000    
       ELAPSED WALLCLOCK TIME (SEC) =          0

               CONVERGENCE CHECKS FOR EQUILIBRIUM ITERATION     2


 AVERAGE FORCE                       172.       TIME AVG. FORCE        114.    
 LARGEST RESIDUAL FORCE            -6.486E-03   AT NODE       5077   DOF  1
   INSTANCE: BEAM1                                                                           
 LARGEST INCREMENT OF DISP.        -7.254E-02   AT NODE        271   DOF  3
   INSTANCE: BEAM1                                                                           
 LARGEST CORRECTION TO DISP.       -4.816E-05   AT NODE        403   DOF  3
   INSTANCE: BEAM1                                                                           
          THE FORCE     EQUILIBRIUM EQUATIONS HAVE CONVERGED

 AVERAGE MOMENT                      0.00       TIME AVG. MOMENT      5.760E+03
                                                (FROM FORCE     FIELD)
 LARGEST RESIDUAL MOMENT           -1.619E-07   AT NODE        352   DOF  5
   INSTANCE: PADTR                                                                           
 LARGEST INCREMENT OF ROTATION     -4.386E-05   AT NODE         27   DOF  5
   INSTANCE: PADL                                                                            
[...]
   INSTANCE: PADL                                                                            
          THERE IS ZERO MOMENT    EVERYWHERE
 
	UNSYMMETRIC DIRECT SPARSE SOLVER RUNNING ON
 	1 HOST:        1 MPI RANK  x 4 THREADS
 	NUMBER OF EQUATIONS:     24759
 	NUMBER OF RHS:           1
 	NUMBER OF FLOPS:         8.260e+09

     CHECK POINT   START OF SOLVER    

     CHECK POINT  END OF SOLVER       

       ELAPSED USER TIME (SEC)      =   1.9000    
       ELAPSED SYSTEM TIME (SEC)    =  0.10000    
       ELAPSED TOTAL CPU TIME (SEC) =   2.0000    
       ELAPSED WALLCLOCK TIME (SEC) =          1

               CONVERGENCE CHECKS FOR EQUILIBRIUM ITERATION     2


 AVERAGE FORCE                       936.       TIME AVG. FORCE        583.    
 LARGEST RESIDUAL FORCE             -395.       AT NODE       2852   DOF  1
   INSTANCE: BEAM1                                                                           
 LARGEST INCREMENT OF DISP.         -3.85       AT NODE        227   DOF  3
   INSTANCE: BEAM1                                                                           
 LARGEST CORRECTION TO DISP.        2.631E-02   AT NODE        668   DOF  1
   INSTANCE: BEAM1                                                                           
          FORCE     EQUILIBRIUM NOT ACHIEVED WITHIN TOLERANCE.

 AVERAGE MOMENT                      0.00       TIME AVG. MOMENT      3.132E+04
                                                (FROM FORCE     FIELD)
 LARGEST RESIDUAL MOMENT           -7.014E-06   AT NODE        352   DOF  4
   INSTANCE: PADTL                                                                           
 LARGEST INCREMENT OF ROTATION      1.956E-03   AT NODE         27   DOF  5
   INSTANCE: PADR                                                                            
 LARGEST CORRECTION TO ROTATION     3.053E-06   AT NODE        352   DOF  5
   INSTANCE: PADL                                                                            
          THERE IS ZERO MOMENT    EVERYWHERE
 
	UNSYMMETRIC DIRECT SPARSE SOLVER RUNNING ON
 	1 HOST:        1 MPI RANK  x 4 THREADS
 	NUMBER OF EQUATIONS:     24759
 	NUMBER OF RHS:           1
 	NUMBER OF FLOPS:         8.260e+09

     CHECK POINT   START OF SOLVER    

     CHECK POINT  END OF SOLVER       

       ELAPSED USER TIME (SEC)      =   2.1000    
       ELAPSED SYSTEM TIME (SEC)    =   0.0000    
       ELAPSED TOTAL CPU TIME (SEC) =   2.1000    
       ELAPSED WALLCLOCK TIME (SEC) =          1
 

 ***WARNING: THE SYSTEM MATRIX HAS 10 NEGATIVE EIGENVALUES.
             EXPLANATIONS ARE SUGGESTED AFTER THE FIRST OCCURRENCE OF THIS MESSAGE.

               CONVERGENCE CHECKS FOR EQUILIBRIUM ITERATION     3


 AVERAGE FORCE                       936.       TIME AVG. FORCE        583.    
 LARGEST RESIDUAL FORCE             -924.       AT NODE        658   DOF  1
   INSTANCE: BEAM1                                                                           
 LARGEST INCREMENT OF DISP.         -3.85       AT NODE        227   DOF  3
   INSTANCE: BEAM1                                                                           
 LARGEST CORRECTION TO DISP.       -2.275E-02   AT NODE       2852   DOF  1
   INSTANCE: BEAM1                                                                           
          FORCE     EQUILIBRIUM NOT ACHIEVED WITHIN TOLERANCE.

 AVERAGE MOMENT                      0.00       TIME AVG. MOMENT      3.132E+04
                                                (FROM FORCE     FIELD)
 LARGEST RESIDUAL MOMENT            5.192E-06   AT NODE        352   DOF  4
   INSTANCE: PADTL                                                                           
 LARGEST INCREMENT OF ROTATION     -1.960E-03   AT NODE         27   DOF  5
   INSTANCE: PADL                                                                            
 LARGEST CORRECTION TO ROTATION    -3.444E-06   AT NODE         27   DOF  5
   INSTANCE: PADL                                                                            
          THERE IS ZERO MOMENT    EVERYWHERE
 
	UNSYMMETRIC DIRECT SPARSE SOLVER RUNNING ON
 	1 HOST:        1 MPI RANK  x 4 THREADS
 	NUMBER OF EQUATIONS:     24759
 	NUMBER OF RHS:           1
 	NUMBER OF FLOPS:         8.260e+09

     CHECK POINT   START OF SOLVER    

     CHECK POINT  END OF SOLVER       

       ELAPSED USER TIME (SEC)      =   1.9000    
       ELAPSED SYSTEM TIME (SEC)    =   0.0000    
       ELAPSED TOTAL CPU TIME (SEC) =   1.9000    
       ELAPSED WALLCLOCK TIME (SEC) =          0
 

 ***WARNING: THE SYSTEM MATRIX HAS 8 NEGATIVE EIGENVALUES.
             EXPLANATIONS ARE SUGGESTED AFTER THE FIRST OCCURRENCE OF THIS MESSAGE.

               CONVERGENCE CHECKS FOR EQUILIBRIUM ITERATION     4


 AVERAGE FORCE                       935.       TIME AVG. FORCE        583.    
 LARGEST RESIDUAL FORCE             -747.       AT NODE       2842   DOF  1
   INSTANCE: BEAM1                                                                           
 LARGEST INCREMENT OF DISP.         -3.84       AT NODE        227   DOF  3
   INSTANCE: BEAM1                                                                           
 LARGEST CORRECTION TO DISP.        2.000E-02   AT NODE       2842   DOF  1
   INSTANCE: BEAM1                                                                           
          FORCE     EQUILIBRIUM NOT ACHIEVED WITHIN TOLERANCE.

 AVERAGE MOMENT                      0.00       TIME AVG. MOMENT      3.132E+04
                                                (FROM FORCE     FIELD)
 LARGEST RESIDUAL MOMENT           -3.847E-06   AT NODE        352   DOF  4
   INSTANCE: PADTL                                                                           
 LARGEST INCREMENT OF ROTATION     -1.953E-03   AT NODE         27   DOF  5
   INSTANCE: PADL                                                                            
 LARGEST CORRECTION TO ROTATION     6.279E-06   AT NODE        352   DOF  5
   INSTANCE: PADL                                                                            
          THERE IS ZERO MOMENT    EVERYWHERE
 
	UNSYMMETRIC DIRECT SPARSE SOLVER RUNNING ON
 	1 HOST:        1 MPI RANK  x 4 THREADS
 	NUMBER OF EQUATIONS:     24759
 	NUMBER OF RHS:           1
 	NUMBER OF FLOPS:         8.260e+09

     CHECK POINT   START OF SOLVER    

     CHECK POINT  END OF SOLVER       

       ELAPSED USER TIME (SEC)      =   1.9000    
       ELAPSED SYSTEM TIME (SEC)    =  0.10000    
       ELAPSED TOTAL CPU TIME (SEC) =   2.0000    
       ELAPSED WALLCLOCK TIME (SEC) =          0

               CONVERGENCE CHECKS FOR EQUILIBRIUM ITERATION     5


 AVERAGE FORCE                       936.       TIME AVG. FORCE        583.    
 LARGEST RESIDUAL FORCE             -4.54       AT NODE       7285   DOF  1
   INSTANCE: BEAM1                                                                           
 LARGEST INCREMENT OF DISP.         -3.84       AT NODE        227   DOF  3
   INSTANCE: BEAM1                                                                           
 LARGEST CORRECTION TO DISP.       -3.328E-03   AT NODE       2842   DOF  1
   INSTANCE: BEAM1                                                                           
          FORCE     EQUILIBRIUM NOT ACHIEVED WITHIN TOLERANCE.

 AVERAGE MOMENT                      0.00       TIME AVG. MOMENT      3.132E+04
                                                (FROM FORCE     FIELD)
 LARGEST RESIDUAL MOMENT           -6.317E-06   AT NODE        352   DOF  4
   INSTANCE: PADTR                                                                           
 LARGEST INCREMENT OF ROTATION     -1.954E-03   AT NODE         27   DOF  5
   INSTANCE: PADL                                                                            
 LARGEST CORRECTION TO ROTATION    -9.622E-07   AT NODE        352   DOF  5
   INSTANCE: PADL                                                                            
          THERE IS ZERO MOMENT    EVERYWHERE
 
	UNSYMMETRIC DIRECT SPARSE SOLVER RUNNING ON
 	1 HOST:        1 MPI RANK  x 4 THREADS
 	NUMBER OF EQUATIONS:     24759
 	NUMBER OF RHS:           1
 	NUMBER OF FLOPS:         8.260e+09

     CHECK POINT   START OF SOLVER    

     CHECK POINT  END OF SOLVER       

       ELAPSED USER TIME (SEC)      =   1.8000    
       ELAPSED SYSTEM TIME (SEC)    =  0.10000    
       ELAPSED TOTAL CPU TIME (SEC) =   1.9000    
       ELAPSED WALLCLOCK TIME (SEC) =          1

               CONVERGENCE CHECKS FOR EQUILIBRIUM ITERATION     6


 AVERAGE FORCE                       936.       TIME AVG. FORCE        583.    
 LARGEST RESIDUAL FORCE             3.335E-03   AT NODE          8   DOF  2
   INSTANCE: BEAM1                                                                           
 LARGEST INCREMENT OF DISP.         -3.84       AT NODE        227   DOF  3
   INSTANCE: BEAM1                                                                           
 LARGEST CORRECTION TO DISP.        2.132E-05   AT NODE       2842   DOF  1
   INSTANCE: BEAM1                                                                           
          THE FORCE     EQUILIBRIUM EQUATIONS HAVE CONVERGED

 AVERAGE MOMENT                      0.00       TIME AVG. MOMENT      3.132E+04
                                                (FROM FORCE     FIELD)
 LARGEST RESIDUAL MOMENT            1.255E-05   AT NODE        352   DOF  4
   INSTANCE: PADTR                                                                           
 LARGEST INCREMENT OF ROTATION     -1.954E-03   AT NODE         27   DOF  5
   INSTANCE: PADL                                                                            
 LARGEST CORRECTION TO ROTATION     2.592E-09   AT NODE         27   DOF  5
   INSTANCE: PADL                                                                            
          THERE IS ZERO MOMENT    EVERYWHERE

 ITERATION SUMMARY FOR THE INCREMENT:   6 TOTAL ITERATIONS, OF WHICH
   0 ARE SEVERE DISCONTINUITY ITERATIONS AND  6 ARE EQUILIBRIUM ITERATIONS.

 TIME INCREMENT COMPLETED  3.673E-03,  FRACTION OF STEP COMPLETED  0.995    
 STEP TIME COMPLETED       0.995    ,  TOTAL TIME COMPLETED         1.19    


  INCREMENT   159 STARTS. ATTEMPT NUMBER  1, TIME INCREMENT  3.673E-03
 
	UNSYMMETRIC DIRECT SPARSE SOLVER RUNNING ON
 	1 HOST:        1 MPI RANK  x 4 THREADS
 	NUMBER OF EQUATIONS:     24759
 	NUMBER OF RHS:           1
 	NUMBER OF FLOPS:         8.260e+09

     CHECK POINT   START OF SOLVER    

     CHECK POINT  END OF SOLVER       

       ELAPSED USER TIME (SEC)      =   2.1000    
       ELAPSED SYSTEM TIME (SEC)    =   0.0000    
       ELAPSED TOTAL CPU TIME (SEC) =   2.1000    
       ELAPSED WALLCLOCK TIME (SEC) =          1
 

 ***WARNING: THE SYSTEM MATRIX HAS 6 NEGATIVE EIGENVALUES.
             EXPLANATIONS ARE SUGGESTED AFTER THE FIRST OCCURRENCE OF THIS MESSAGE.

               CONVERGENCE CHECKS FOR EQUILIBRIUM ITERATION     1


 AVERAGE FORCE                       939.       TIME AVG. FORCE        585.    
 LARGEST RESIDUAL FORCE              537.       AT NODE       7276   DOF  3
   INSTANCE: BEAM1                                                                           
 LARGEST INCREMENT OF DISP.         -3.97       AT NODE        227   DOF  3
   INSTANCE: BEAM1                                                                           
 LARGEST CORRECTION TO DISP.       -0.128       AT NODE       1932   DOF  3
   INSTANCE: BEAM1                                                                           
          FORCE     EQUILIBRIUM NOT ACHIEVED WITHIN TOLERANCE.

 AVERAGE MOMENT                      0.00       TIME AVG. MOMENT      3.144E+04
                                                (FROM FORCE     FIELD)
 LARGEST RESIDUAL MOMENT           -8.953E-06   AT NODE        352   DOF  4
   INSTANCE: PADTR                                                                           
 LARGEST INCREMENT OF ROTATION     -2.022E-03   AT NODE         27   DOF  5
   INSTANCE: PADL                                                                            
 LARGEST CORRECTION TO ROTATION    -6.795E-05   AT NODE        352   DOF  5
   INSTANCE: PADL                                                                            
          THERE IS ZERO MOMENT    EVERYWHERE
 
	UNSYMMETRIC DIRECT SPARSE SOLVER RUNNING ON
 	1 HOST:        1 MPI RANK  x 4 THREADS
 	NUMBER OF EQUATIONS:     24759
 	NUMBER OF RHS:           1
 	NUMBER OF FLOPS:         8.260e+09

     CHECK POINT   START OF SOLVER    

     CHECK POINT  END OF SOLVER       

       ELAPSED USER TIME (SEC)      =   1.9000    
       ELAPSED SYSTEM TIME (SEC)    =  0.10000    
       ELAPSED TOTAL CPU TIME (SEC) =   2.0000    
       ELAPSED WALLCLOCK TIME (SEC) =          1

               CONVERGENCE CHECKS FOR EQUILIBRIUM ITERATION     2


 AVERAGE FORCE                       939.       TIME AVG. FORCE        585.    
 LARGEST RESIDUAL FORCE              37.8       AT NODE       5001   DOF  1
   INSTANCE: BEAM1                                                                           
 LARGEST INCREMENT OF DISP.         -3.97       AT NODE        227   DOF  3
   INSTANCE: BEAM1                                                                           
 LARGEST CORRECTION TO DISP.       -1.991E-03   AT NODE       2851   DOF  3
   INSTANCE: BEAM1                                                                           
          FORCE     EQUILIBRIUM NOT ACHIEVED WITHIN TOLERANCE.

 AVERAGE MOMENT                      0.00       TIME AVG. MOMENT      3.144E+04
                                                (FROM FORCE     FIELD)
 LARGEST RESIDUAL MOMENT            2.090E-06   AT NODE        352   DOF  4
   INSTANCE: PADTL                                                                           
 LARGEST INCREMENT OF ROTATION     -2.023E-03   AT NODE         27   DOF  5
   INSTANCE: PADL                                                                            
 LARGEST CORRECTION TO ROTATION    -3.833E-07   AT NODE         27   DOF  5
   INSTANCE: PADL                                                                            
          THERE IS ZERO MOMENT    EVERYWHERE
 
	UNSYMMETRIC DIRECT SPARSE SOLVER RUNNING ON
 	1 HOST:        1 MPI RANK  x 4 THREADS
 	NUMBER OF EQUATIONS:     24759
 	NUMBER OF RHS:           1
 	NUMBER OF FLOPS:         8.260e+09

     CHECK POINT   START OF SOLVER    

     CHECK POINT  END OF SOLVER       

       ELAPSED USER TIME (SEC)      =   2.0000    
       ELAPSED SYSTEM TIME (SEC)    =   0.0000    
       ELAPSED TOTAL CPU TIME (SEC) =   2.0000    
       ELAPSED WALLCLOCK TIME (SEC) =          1

               CONVERGENCE CHECKS FOR EQUILIBRIUM ITERATION     3


 AVERAGE FORCE                       939.       TIME AVG. FORCE        585.    
 LARGEST RESIDUAL FORCE            -8.970E-02   AT NODE        658   DOF  1
   INSTANCE: BEAM1                                                                           
 LARGEST INCREMENT OF DISP.         -3.97       AT NODE        227   DOF  3
   INSTANCE: BEAM1                                                                           
 LARGEST CORRECTION TO DISP.        3.939E-04   AT NODE       6152   DOF  1
   INSTANCE: BEAM1                                                                           
          THE FORCE     EQUILIBRIUM EQUATIONS HAVE CONVERGED

 AVERAGE MOMENT                      0.00       TIME AVG. MOMENT      3.144E+04
                                                (FROM FORCE     FIELD)
 LARGEST RESIDUAL MOMENT           -6.003E-06   AT NODE        352   DOF  4
   INSTANCE: PADTL                                                                           
 LARGEST INCREMENT OF ROTATION     -2.023E-03   AT NODE         27   DOF  5
   INSTANCE: PADL                                                                            
 LARGEST CORRECTION TO ROTATION    -1.038E-07   AT NODE         27   DOF  5
   INSTANCE: PADTR                                                                           
          THERE IS ZERO MOMENT    EVERYWHERE

 ITERATION SUMMARY FOR THE INCREMENT:   3 TOTAL ITERATIONS, OF WHICH
   0 ARE SEVERE DISCONTINUITY ITERATIONS AND  3 ARE EQUILIBRIUM ITERATIONS.

 TIME INCREMENT COMPLETED  3.673E-03,  FRACTION OF STEP COMPLETED  0.999    
 STEP TIME COMPLETED       0.999    ,  TOTAL TIME COMPLETED         1.20    


  INCREMENT   160 STARTS. ATTEMPT NUMBER  1, TIME INCREMENT  1.387E-03
 
	UNSYMMETRIC DIRECT SPARSE SOLVER RUNNING ON
 	1 HOST:        1 MPI RANK  x 4 THREADS
 	NUMBER OF EQUATIONS:     24759
 	NUMBER OF RHS:           1
 	NUMBER OF FLOPS:         8.260e+09

     CHECK POINT   START OF SOLVER    

     CHECK POINT  END OF SOLVER       

       ELAPSED USER TIME (SEC)      =   2.1000    
       ELAPSED SYSTEM TIME (SEC)    =   0.0000    
       ELAPSED TOTAL CPU TIME (SEC) =   2.1000    
       ELAPSED WALLCLOCK TIME (SEC) =          1

               CONVERGENCE CHECKS FOR EQUILIBRIUM ITERATION     1


 AVERAGE FORCE                       941.       TIME AVG. FORCE        587.    
 LARGEST RESIDUAL FORCE             -1.62       AT NODE       2543   DOF  3
   INSTANCE: BEAM1                                                                           
 LARGEST INCREMENT OF DISP.         -1.52       AT NODE        227   DOF  3
   INSTANCE: BEAM1                                                                           
 LARGEST CORRECTION TO DISP.       -2.195E-02   AT NODE       1932   DOF  3
   INSTANCE: BEAM1                                                                           
 ESTIMATE OF DISP.    CORRECTION   -1.265E-04
 FORCE     EQUILIB. ACCEPTED BASED ON SMALL RESIDUAL AND ESTIMATED CORRECTION

 AVERAGE MOMENT                      0.00       TIME AVG. MOMENT      3.156E+04
                                                (FROM FORCE     FIELD)
 LARGEST RESIDUAL MOMENT            1.828E-06   AT NODE        352   DOF  4
   INSTANCE: PADTR                                                                           
 LARGEST INCREMENT OF ROTATION     -7.754E-04   AT NODE         27   DOF  5
   INSTANCE: PADL                                                                            
 LARGEST CORRECTION TO ROTATION     1.173E-05   AT NODE        352   DOF  5
   INSTANCE: PADR                                                                            
          THERE IS ZERO MOMENT    EVERYWHERE

 ITERATION SUMMARY FOR THE INCREMENT:   1 TOTAL ITERATIONS, OF WHICH
   0 ARE SEVERE DISCONTINUITY ITERATIONS AND  1 ARE EQUILIBRIUM ITERATIONS.

 TIME INCREMENT COMPLETED  1.387E-03,  FRACTION OF STEP COMPLETED   1.00    
 STEP TIME COMPLETED        1.00    ,  TOTAL TIME COMPLETED         1.20    


          THE ANALYSIS HAS BEEN COMPLETED



     ANALYSIS SUMMARY:
     TOTAL OF        167  INCREMENTS
                      40  CUTBACKS IN AUTOMATIC INCREMENTATION
                     652  ITERATIONS INCLUDING CONTACT ITERATIONS IF PRESENT
                     652  PASSES THROUGH THE EQUATION SOLVER OF WHICH 
                     641  INVOLVE MATRIX DECOMPOSITION, INCLUDING
                       0  DECOMPOSITION(S) OF THE MASS MATRIX
                       1  REORDERING OF EQUATIONS TO MINIMIZE WAVEFRONT
                       0  ADDITIONAL RESIDUAL EVALUATIONS FOR LINE SEARCHES
                       0  ADDITIONAL OPERATOR EVALUATIONS FOR LINE SEARCHES
                       3  WARNING MESSAGES DURING USER INPUT PROCESSING
                     303  WARNING MESSAGES DURING ANALYSIS
                       0  ANALYSIS WARNINGS ARE NUMERICAL PROBLEM MESSAGES
                     301  ANALYSIS WARNINGS ARE NEGATIVE EIGENVALUE MESSAGES
                       0  ERROR MESSAGES



     JOB TIME SUMMARY
       USER TIME (SEC)      =   2013.9    
       SYSTEM TIME (SEC)    =   48.200    
       TOTAL CPU TIME (SEC) =   2062.1    
       WALLCLOCK TIME (SEC) =        608
