 Abaqus/Standard 2022                  DATE 30-3ÔÂ-2025 TIME 02:18:25
 SUMMARY OF JOB INFORMATION:
 STEP  INC ATT SEVERE EQUIL TOTAL  TOTAL      STEP       INC OF       DOF    IF
               DISCON ITERS ITERS  TIME/    TIME/LPF    TIME/LPF    MONITOR RIKS
               ITERS               FREQ
   1     1   1     0     1     1  0.0100     0.0100     0.01000   
   1     2   1     0     1     1  0.0200     0.0200     0.01000   
   1     3   1     0     1     1  0.0350     0.0350     0.01500   
   1     4   1     0     1     1  0.0575     0.0575     0.02250   
   1     5   1     0     1     1  0.0912     0.0912     0.03375   
   1     6   1     0     1     1  0.142      0.142      0.05063   
   1     7   1     0     1     1  0.200      0.200      0.05813   
   2     1   1     0     1     1  0.210      0.0100     0.01000   
   2     2   1     0     1     1  0.220      0.0200     0.01000   
   2     3   1     0     1     1  0.235      0.0350     0.01500   
   2     4   1     0     1     1  0.258      0.0575     0.02250   
   2     5   1     0     1     1  0.291      0.0912     0.03375   
   2     6   1     0     4     4  0.342      0.142      0.05063   
   2     7   1U    0     3     3  0.342      0.142      0.07594   
   2     7   2U    0     6     6  0.342      0.142      0.01898   
   2     7   3     0     3     3  0.347      0.147      0.004746  
   2     8   1     0     2     2  0.354      0.154      0.007119  
   2     9   1     0     2     2  0.364      0.164      0.01068   
   2    10   1U    0     4     4  0.364      0.164      0.01602   
   2    10   2     0     2     2  0.368      0.168      0.004005  
   2    11   1     0     2     2  0.374      0.174      0.006007  
   2    12   1     0     3     3  0.383      0.183      0.009010  
   2    13   1U    0     4     4  0.383      0.183      0.01352   
   2    13   2     0     2     2  0.387      0.187      0.003379  
   2    14   1     0     2     2  0.392      0.192      0.005068  
   2    15   1     0     3     3  0.399      0.199      0.007602  
   2    16   1U    0     4     4  0.399      0.199      0.01140   
   2    16   2     0     2     2  0.402      0.202      0.002851  
   2    17   1     0     3     3  0.407      0.207      0.004276  
   2    18   1     0     3     3  0.413      0.213      0.006414  
   2    19   1     0     4     4  0.423      0.223      0.009622  
   2    20   1U    0     4     4  0.423      0.223      0.01443   
   2    20   2     0     2     2  0.426      0.226      0.003608  
   2    21   1     0     2     2  0.432      0.232      0.005412  
   2    22   1     0     3     3  0.440      0.240      0.008118  
   2    23   1     0     6     6  0.452      0.252      0.01218   
   2    24   1     0     4     4  0.464      0.264      0.01218   
   2    25   1     0     5     5  0.476      0.276      0.01218   
   2    26   1     0     4     4  0.489      0.289      0.01218   
   2    27   1     0     4     4  0.501      0.301      0.01218   
   2    28   1U    0     4     4  0.501      0.301      0.01827   
   2    28   2     0     2     2  0.505      0.305      0.004567  
   2    29   1     0     2     2  0.512      0.312      0.006850  
   2    30   1     0     3     3  0.522      0.322      0.01027   
   2    31   1     0     4     4  0.538      0.338      0.01541   
   2    32   1U    0     4     4  0.538      0.338      0.02312   
   2    32   2     0     2     2  0.544      0.344      0.005780  
   2    33   1     0     2     2  0.552      0.352      0.008669  
   2    34   1     0     3     3  0.565      0.365      0.01300   
   2    35   1U    0     5     5  0.565      0.365      0.01951   
   2    35   2     0     2     2  0.570      0.370      0.004876  
   2    36   1     0     2     2  0.577      0.377      0.007315  
   2    37   1     0     3     3  0.588      0.388      0.01097   
   2    38   1U    0     5     5  0.588      0.388      0.01646   
   2    38   2     0     2     2  0.593      0.393      0.004115  
   2    39   1     0     3     3  0.599      0.399      0.006172  
   2    40   1     0     4     4  0.608      0.408      0.009258  
   2    41   1     0     4     4  0.622      0.422      0.01389   
   2    42   1U    0     5     5  0.622      0.422      0.02083   
   2    42   2     0     2     2  0.627      0.427      0.005207  
   2    43   1     0     2     2  0.635      0.435      0.007811  
   2    44   1     0     5     5  0.647      0.447      0.01172   
   2    45   1     0     3     3  0.658      0.458      0.01172   
   2    46   1     0     3     3  0.670      0.470      0.01172   
   2    47   1U    0     8     8  0.670      0.470      0.01758   
   2    47   2     0     2     2  0.674      0.474      0.004394  
   2    48   1     0     2     2  0.681      0.481      0.006591  
   2    49   1     0     3     3  0.691      0.491      0.009886  
   2    50   1     0    13    13  0.706      0.506      0.01483   
   2    51   1U    0     7     7  0.706      0.506      0.01112   
   2    51   2     0     2     2  0.708      0.508      0.002780  
   2    52   1     0     1     1  0.711      0.511      0.002780  
   2    53   1     0     3     3  0.715      0.515      0.004171  
   2    54   1     0     5     5  0.722      0.522      0.006256  
   2    55   1     0     3     3  0.728      0.528      0.006256  
   2    56   1     0     2     2  0.734      0.534      0.006256  
   2    57   1     0     3     3  0.744      0.544      0.009384  
   2    58   1     0     6     6  0.758      0.558      0.01408   
   2    59   1U    0     7     7  0.758      0.558      0.01408   
   2    59   2     0     2     2  0.761      0.561      0.003519  
   2    60   1     0     2     2  0.765      0.565      0.003519  
   2    61   1U    0     7     7  0.765      0.565      0.005279  
   2    61   2     0     1     1  0.766      0.566      0.001320  
   2    62   1     0     1     1  0.768      0.568      0.001979  
   2    63   1     0     2     2  0.771      0.571      0.002969  
   2    64   1U    0     5     5  0.771      0.571      0.004454  
   2    64   2     0     1     1  0.772      0.572      0.001113  
   2    65   1     0     2     2  0.774      0.574      0.001670  
   2    66   1     0     2     2  0.776      0.576      0.002505  
   2    67   1     0     2     2  0.780      0.580      0.003758  
   2    68   1     0     3     3  0.786      0.586      0.005637  
   2    69   1U    0     5     5  0.786      0.586      0.008455  
   2    69   2     0     2     2  0.788      0.588      0.002114  
   2    70   1     0     3     3  0.791      0.591      0.003171  
   2    71   1     0     3     3  0.796      0.596      0.004756  
   2    72   1     0     3     3  0.803      0.603      0.007134  
   2    73   1     0     4     4  0.814      0.614      0.01070   
   2    74   1U    0     8     8  0.814      0.614      0.01605   
   2    74   2     0     2     2  0.818      0.618      0.004013  
   2    75   1     0     4     4  0.824      0.624      0.006019  
   2    76   1     0     3     3  0.833      0.633      0.009029  
   2    77   1U    0     6     6  0.833      0.633      0.01354   
   2    77   2     0     2     2  0.836      0.636      0.003386  
   2    78   1     0     2     2  0.841      0.641      0.005079  
   2    79   1     0    10    10  0.849      0.649      0.007618  
   2    80   1U    0     5     5  0.849      0.649      0.007618  
   2    80   2     0     1     1  0.851      0.651      0.001905  
   2    81   1     0     1     1  0.852      0.652      0.001905  
   2    82   1     0     2     2  0.855      0.655      0.002857  
   2    83   1     0     3     3  0.860      0.660      0.004285  
   2    84   1U    0     5     5  0.860      0.660      0.006428  
   2    84   2     0     1     1  0.861      0.661      0.001607  
   2    85   1     0     1     1  0.864      0.664      0.002410  
   2    86   1     0     2     2  0.867      0.667      0.003616  
   2    87   1     0     2     2  0.873      0.673      0.005424  
   2    88   1     0     3     3  0.881      0.681      0.008135  
   2    89   1     0     3     3  0.893      0.693      0.01220   
   2    90   1U    0     5     5  0.893      0.693      0.01830   
   2    90   2     0     2     2  0.898      0.698      0.004576  
   2    91   1     0     2     2  0.904      0.704      0.006864  
   2    92   1     0     3     3  0.915      0.715      0.01030   
   2    93   1U    0     6     6  0.915      0.715      0.01544   
   2    93   2     0     4     4  0.919      0.719      0.003861  
   2    94   1     0     2     2  0.924      0.724      0.005792  
   2    95   1     0     3     3  0.933      0.733      0.008687  
   2    96   1U    0     4     4  0.933      0.733      0.01303   
   2    96   2     0     2     2  0.936      0.736      0.003258  
   2    97   1     0     3     3  0.941      0.741      0.004887  
   2    98   1     0     2     2  0.949      0.749      0.007330  
   2    99   1     0     4     4  0.960      0.760      0.01100   
   2   100   1U    0     6     6  0.960      0.760      0.01649   
   2   100   2     0     2     2  0.964      0.764      0.004123  
   2   101   1     0     3     3  0.970      0.770      0.006185  
   2   102   1     0     3     3  0.979      0.779      0.009277  
   2   103   1     0     8     8  0.993      0.793      0.01392   
   2   104   1     0     4     4  1.01       0.807      0.01392   
   2   105   1     0     5     5  1.02       0.821      0.01392   
   2   106   1U    0     6     6  1.02       0.821      0.01392   
   2   106   2     0     2     2  1.02       0.824      0.003479  
   2   107   1     0     2     2  1.03       0.828      0.003479  
   2   108   1     0     2     2  1.03       0.833      0.005218  
   2   109   1     0     3     3  1.04       0.841      0.007828  
   2   110   1     0     6     6  1.05       0.853      0.01174   
   2   111   1U    0     4     4  1.05       0.853      0.01174   
   2   111   2     0     2     2  1.06       0.856      0.002935  
   2   112   1     0     2     2  1.06       0.859      0.002935  
   2   113   1     0     3     3  1.06       0.863      0.004403  
   2   114   1     0     4     4  1.07       0.870      0.006604  
   2   115   1     0     3     3  1.08       0.879      0.009907  
   2   116   1U    0     6     6  1.08       0.879      0.01486   
   2   116   2     0     2     2  1.08       0.883      0.003715  
   2   117   1     0     3     3  1.09       0.889      0.005573  
   2   118   1U    0     5     5  1.09       0.889      0.008359  
   2   118   2     0     2     2  1.09       0.891      0.002090  
   2   119   1     0     2     2  1.09       0.894      0.003135  
   2   120   1     0     3     3  1.10       0.899      0.004702  
   2   121   1     0     3     3  1.11       0.906      0.007053  
   2   122   1U    0     6     6  1.11       0.906      0.01058   
   2   122   2     0     3     3  1.11       0.908      0.002645  
   2   123   1U    0     5     5  1.11       0.908      0.003967  
   2   123   2     0     1     1  1.11       0.909      0.0009918 
   2   124   1     0     1     1  1.11       0.911      0.001488  
   2   125   1     0     3     3  1.11       0.913      0.002232  
   2   126   1     0     2     2  1.12       0.916      0.003347  
   2   127   1     0     3     3  1.12       0.921      0.005021  
   2   128   1     0     4     4  1.13       0.929      0.007531  
   2   129   1U    0     4     4  1.13       0.929      0.01130   
   2   129   2     0     2     2  1.13       0.932      0.002824  
   2   130   1     0     3     3  1.14       0.936      0.004236  
   2   131   1U    0     5     5  1.14       0.936      0.006355  
   2   131   2     0     2     2  1.14       0.938      0.001589  
   2   132   1     0     3     3  1.14       0.940      0.002383  
   2   133   1     0     3     3  1.14       0.944      0.003574  
   2   134   1     0     3     3  1.15       0.949      0.005362  
   2   135   1     0     4     4  1.16       0.957      0.008043  
   2   136   1U    0     5     5  1.16       0.957      0.01206   
   2   136   2     0     2     2  1.16       0.960      0.003016  
   2   137   1     0     3     3  1.16       0.964      0.004524  
   2   138   1U    0     4     4  1.16       0.964      0.006786  
   2   138   2     0     2     2  1.17       0.966      0.001696  
   2   139   1     0     4     4  1.17       0.969      0.002545  
   2   140   1U    0     4     4  1.17       0.969      0.003817  
   2   140   2     0     1     1  1.17       0.970      0.0009543 
   2   141   1U    0     4     4  1.17       0.970      0.001431  
   2   141   2     0     1     1  1.17       0.970      0.0003579 
   2   142   1U    0     5     5  1.17       0.970      0.0005368 
   2   142   2     0     1     1  1.17       0.970      0.0001342 
   2   143   1     0     1     1  1.17       0.970      0.0002013 
   2   144   1     0     2     2  1.17       0.971      0.0003019 
   2   145   1U    0     9     9  1.17       0.971      0.0004529 
   2   145   2     0     1     1  1.17       0.971      0.0001132 
   2   146   1     0     1     1  1.17       0.971      0.0001698 
   2   147   1     0     2     2  1.17       0.971      0.0002548 
   2   148   1     0     1     1  1.17       0.972      0.0003821 
   2   149   1     0     1     1  1.17       0.972      0.0005732 
   2   150   1     0     2     2  1.17       0.973      0.0008598 
   2   151   1     0     2     2  1.17       0.974      0.001290  
   2   152   1     0     2     2  1.18       0.976      0.001935  
   2   153   1     0     3     3  1.18       0.979      0.002902  
   2   154   1     0     3     3  1.18       0.984      0.004353  
   2   155   1U    0     4     4  1.18       0.984      0.006529  
   2   155   2     0     2     2  1.19       0.985      0.001632  
   2   156   1     0     2     2  1.19       0.988      0.002448  
   2   157   1     0    10    10  1.19       0.991      0.003673  
   2   158   1     0     6     6  1.19       0.995      0.003673  
   2   159   1     0     3     3  1.20       0.999      0.003673  
   2   160   1     0     1     1  1.20       1.00       0.001387  
                          
 THE ANALYSIS HAS COMPLETED SUCCESSFULLY
