1

   Abaqus 2022                                  Date 28-3ÔÂ-2025   Time 05:27:02
   For use by Supplied by Team-SolidSQUAD under license from Dassault Systemes or its subsidiary.

                                                                                 
                                                                                 
 STEP    1     INCREMENT     1     STEP TIME    0.00    


                        S T E P       1     S T A T I C   A N A L Y S I S


                                                                                          

     AUTOMATIC TIME CONTROL WITH -
          A SUGGESTED INITIAL TIME INCREMENT OF                1.000E-02
          AND A TOTAL TIME PERIOD OF                            2.00    
          THE MINIMUM TIME INCREMENT ALLOWED IS                2.000E-05
          THE MAXIMUM TIME INCREMENT ALLOWED IS                 2.00    

     LINEAR EQUATION SOLVER TYPE         DIRECT SPARSE

 CONVERGENCE TOLERANCE PARAMETERS FOR FORCE    
     CRITERION FOR RESIDUAL FORCE     FOR A NONLINEAR PROBLEM          5.000E-03
     CRITERION FOR DISP.    CORRECTION IN A NONLINEAR PROBLEM          1.000E-02
     INITIAL VALUE OF TIME AVERAGE FORCE                               1.000E-02
     AVERAGE FORCE     IS TIME AVERAGE FORCE    
     ALTERNATE CRIT. FOR RESIDUAL FORCE     FOR A NONLINEAR PROBLEM    2.000E-02
     CRITERION FOR ZERO FORCE     RELATIVE TO TIME AVRG. FORCE         1.000E-05
     CRITERION FOR RESIDUAL FORCE     WHEN THERE IS ZERO FLUX          1.000E-05
     CRITERION FOR DISP.    CORRECTION WHEN THERE IS ZERO FLUX         1.000E-03
     CRITERION FOR RESIDUAL FORCE     FOR A LINEAR INCREMENT           1.000E-08
     FIELD CONVERSION RATIO                                             1.00    
     CRITERION FOR ZERO FORCE     REL. TO TIME AVRG. MAX. FORCE        1.000E-05
     CRITERION FOR ZERO DISP.    RELATIVE TO CHARACTERISTIC LENGTH     1.000E-08

     VOLUMETRIC STRAIN COMPATIBILITY TOLERANCE FOR HYBRID SOLIDS       1.000E-05
     AXIAL STRAIN COMPATIBILITY TOLERANCE FOR HYBRID BEAMS             1.000E-05
     TRANS. SHEAR STRAIN COMPATIBILITY TOLERANCE FOR HYBRID BEAMS      1.000E-05
     SOFT CONTACT CONSTRAINT COMPATIBILITY TOLERANCE FOR P>P0          5.000E-03
     SOFT CONTACT CONSTRAINT COMPATIBILITY TOLERANCE FOR P=0.0         0.100    
     CONTACT FORCE ERROR TOLERANCE FOR CONVERT SDI=YES                 1.00    
     DISPLACEMENT COMPATIBILITY TOLERANCE FOR DCOUP ELEMENTS           1.000E-05
     ROTATION COMPATIBILITY TOLERANCE FOR DCOUP ELEMENTS               1.000E-05

 EQUILIBRIUM WILL BE CHECKED FOR SEVERE DISCONTINUITY ITERATIONS

 TIME INCREMENTATION CONTROL PARAMETERS:
     FIRST EQUILIBRIUM ITERATION FOR CONSECUTIVE DIVERGENCE CHECK              4
     EQUILIBRIUM ITERATION AT WHICH LOG. CONVERGENCE RATE CHECK BEGINS         8
     EQUILIBRIUM ITERATION AFTER WHICH ALTERNATE RESIDUAL IS USED              9
     MAXIMUM EQUILIBRIUM ITERATIONS ALLOWED                                   16
     EQUILIBRIUM ITERATION COUNT FOR CUT-BACK IN NEXT INCREMENT               10
     MAXIMUM EQUILIB. ITERS IN TWO INCREMENTS FOR TIME INCREMENT INCREASE      4
     MAXIMUM ITERATIONS FOR SEVERE DISCONTINUITIES                            50
     MAXIMUM ATTEMPTS ALLOWED IN AN INCREMENT                                  5
     MAXIMUM DISCON. ITERS IN TWO INCREMENTS FOR TIME INCREMENT INCREASE      50
     MAXIMUM CONTACT AUGMENTATIONS FOR *SURFACE BEHAVIOR,AUGMENTED LAGRANGE   50
     CUT-BACK FACTOR AFTER DIVERGENCE                                 0.2500    
     CUT-BACK FACTOR FOR TOO SLOW CONVERGENCE                         0.5000    
     CUT-BACK FACTOR AFTER TOO MANY EQUILIBRIUM ITERATIONS            0.7500    
     CUT-BACK FACTOR AFTER TOO MANY SEVERE DISCONTINUITY ITERATIONS   0.2500    
     CUT-BACK FACTOR AFTER PROBLEMS IN ELEMENT ASSEMBLY               0.2500    
     INCREASE FACTOR AFTER TWO INCREMENTS THAT CONVERGE QUICKLY        1.500    
     MAX. TIME INCREMENT INCREASE FACTOR ALLOWED                       1.500    
     MAX. TIME INCREMENT INCREASE FACTOR ALLOWED (DYNAMICS)            1.250    
     MAX. TIME INCREMENT INCREASE FACTOR ALLOWED (DIFFUSION)           2.000    
     MINIMUM TIME INCREMENT RATIO FOR EXTRAPOLATION TO OCCUR          0.1000    
     MAX. RATIO OF TIME INCREMENT TO STABILITY LIMIT                   1.000    
     FRACTION OF STABILITY LIMIT FOR NEW TIME INCREMENT               0.9500    
     TIME INCREMENT INCREASE FACTOR BEFORE A TIME POINT                1.000    
     GLOBAL STABILIZATION CONTROL IS NOT USED

          PRINT OF INCREMENT NUMBER, TIME, ETC., EVERY    1  INCREMENTS

     THE MAXIMUM NUMBER OF INCREMENTS IN THIS STEP IS                     100

     LINEAR EXTRAPOLATION WILL BE USED

     CHARACTERISTIC ELEMENT LENGTH      5.00    

     DETAILS REGARDING ACTUAL SOLUTION WAVEFRONT REQUESTED

     DETAILED OUTPUT OF DIAGNOSTICS TO DATABASE REQUESTED

     PRINT OF INCREMENT NUMBER, TIME, ETC., TO THE MESSAGE FILE EVERY     1  INCREMENTS

     COLLECTING MODEL CONSTRAINT INFORMATION FOR OVERCONSTRAINT CHECKS

     COLLECTING STEP CONSTRAINT INFORMATION FOR OVERCONSTRAINT CHECKS


  INCREMENT     1 STARTS. ATTEMPT NUMBER  1, TIME INCREMENT  1.000E-02
 
	SYMMETRIC DIRECT SPARSE SOLVER RUNNING ON
 	1 HOST:        1 MPI RANK  x 1 THREAD
 	NUMBER OF EQUATIONS:     23
 	NUMBER OF RHS:           1
 	NUMBER OF FLOPS:         4.640e+02

     CHECK POINT   START OF SOLVER    

     CHECK POINT  END OF SOLVER       

       ELAPSED USER TIME (SEC)      =   0.0000    
       ELAPSED SYSTEM TIME (SEC)    =   0.0000    
       ELAPSED TOTAL CPU TIME (SEC) =   0.0000    
       ELAPSED WALLCLOCK TIME (SEC) =          0

               CONVERGENCE CHECKS FOR EQUILIBRIUM ITERATION     1


 AVERAGE FORCE                       50.8       TIME AVG. FORCE        50.8    
 LARGEST RESIDUAL FORCE             8.242E-13   AT NODE         16   DOF  1
   INSTANCE: REINBAR-1                                                                       
 LARGEST INCREMENT OF DISP.         1.492E-03   AT NODE         21   DOF  1
   INSTANCE: REINBAR-1                                                                       
 LARGEST CORRECTION TO DISP.        1.492E-03   AT NODE         21   DOF  1
   INSTANCE: REINBAR-1                                                                       
          THE FORCE     EQUILIBRIUM RESPONSE WAS LINEAR IN THIS INCREMENT

 ITERATION SUMMARY FOR THE INCREMENT:   1 TOTAL ITERATIONS, OF WHICH
   0 ARE SEVERE DISCONTINUITY ITERATIONS AND  1 ARE EQUILIBRIUM ITERATIONS.

 TIME INCREMENT COMPLETED  1.000E-02,  FRACTION OF STEP COMPLETED  5.000E-03
 STEP TIME COMPLETED       1.000E-02,  TOTAL TIME COMPLETED        1.000E-02


  INCREMENT     2 STARTS. ATTEMPT NUMBER  1, TIME INCREMENT  1.000E-02
 
	SYMMETRIC DIRECT SPARSE SOLVER RUNNING ON
 	1 HOST:        1 MPI RANK  x 1 THREAD
 	NUMBER OF EQUATIONS:     23
 	NUMBER OF RHS:           1
 	NUMBER OF FLOPS:         4.640e+02

     CHECK POINT   START OF SOLVER    

     CHECK POINT  END OF SOLVER       

       ELAPSED USER TIME (SEC)      =   0.0000    
       ELAPSED SYSTEM TIME (SEC)    =   0.0000    
       ELAPSED TOTAL CPU TIME (SEC) =   0.0000    
       ELAPSED WALLCLOCK TIME (SEC) =          0

               CONVERGENCE CHECKS FOR EQUILIBRIUM ITERATION     1


 AVERAGE FORCE                       300.       TIME AVG. FORCE        175.    
 LARGEST RESIDUAL FORCE             1.080E-12   AT NODE         14   DOF  1
   INSTANCE: REINBAR-1                                                                       
 LARGEST INCREMENT OF DISP.         1.492E-03   AT NODE         21   DOF  1
   INSTANCE: REINBAR-1                                                                       
 LARGEST CORRECTION TO DISP.        3.797E-17   AT NODE         21   DOF  1
   INSTANCE: REINBAR-1                                                                       
          THE FORCE     EQUILIBRIUM RESPONSE WAS LINEAR IN THIS INCREMENT
          TIME INCREMENT MAY NOW INCREASE TO    1.500E-02

 ITERATION SUMMARY FOR THE INCREMENT:   1 TOTAL ITERATIONS, OF WHICH
   0 ARE SEVERE DISCONTINUITY ITERATIONS AND  1 ARE EQUILIBRIUM ITERATIONS.

 TIME INCREMENT COMPLETED  1.000E-02,  FRACTION OF STEP COMPLETED  1.000E-02
 STEP TIME COMPLETED       2.000E-02,  TOTAL TIME COMPLETED        2.000E-02


  INCREMENT     3 STARTS. ATTEMPT NUMBER  1, TIME INCREMENT  1.500E-02
 
	SYMMETRIC DIRECT SPARSE SOLVER RUNNING ON
 	1 HOST:        1 MPI RANK  x 1 THREAD
 	NUMBER OF EQUATIONS:     23
 	NUMBER OF RHS:           1
 	NUMBER OF FLOPS:         4.640e+02

     CHECK POINT   START OF SOLVER    

     CHECK POINT  END OF SOLVER       

       ELAPSED USER TIME (SEC)      =   0.0000    
       ELAPSED SYSTEM TIME (SEC)    =   0.0000    
       ELAPSED TOTAL CPU TIME (SEC) =   0.0000    
       ELAPSED WALLCLOCK TIME (SEC) =          0

               CONVERGENCE CHECKS FOR EQUILIBRIUM ITERATION     1


 AVERAGE FORCE                       525.       TIME AVG. FORCE        292.    
 LARGEST RESIDUAL FORCE             1.592E-12   AT NODE         19   DOF  1
   INSTANCE: REINBAR-1                                                                       
 LARGEST INCREMENT OF DISP.         2.238E-03   AT NODE         21   DOF  1
   INSTANCE: REINBAR-1                                                                       
 LARGEST CORRECTION TO DISP.       -2.850E-17   AT NODE         19   DOF  1
   INSTANCE: REINBAR-1                                                                       
          THE FORCE     EQUILIBRIUM RESPONSE WAS LINEAR IN THIS INCREMENT
          TIME INCREMENT MAY NOW INCREASE TO    1.500E-02

 ITERATION SUMMARY FOR THE INCREMENT:   1 TOTAL ITERATIONS, OF WHICH
   0 ARE SEVERE DISCONTINUITY ITERATIONS AND  1 ARE EQUILIBRIUM ITERATIONS.

 TIME INCREMENT COMPLETED  1.500E-02,  FRACTION OF STEP COMPLETED  1.750E-02
 STEP TIME COMPLETED       3.500E-02,  TOTAL TIME COMPLETED        3.500E-02


  INCREMENT     4 STARTS. ATTEMPT NUMBER  1, TIME INCREMENT  1.500E-02
 
	SYMMETRIC DIRECT SPARSE SOLVER RUNNING ON
 	1 HOST:        1 MPI RANK  x 1 THREAD
 	NUMBER OF EQUATIONS:     23
 	NUMBER OF RHS:           1
 	NUMBER OF FLOPS:         4.640e+02

     CHECK POINT   START OF SOLVER    

     CHECK POINT  END OF SOLVER       

       ELAPSED USER TIME (SEC)      =   0.0000    
       ELAPSED SYSTEM TIME (SEC)    =   0.0000    
       ELAPSED TOTAL CPU TIME (SEC) =   0.0000    
       ELAPSED WALLCLOCK TIME (SEC) =          0

               CONVERGENCE CHECKS FOR EQUILIBRIUM ITERATION     1


 AVERAGE FORCE                       750.       TIME AVG. FORCE        406.    
 LARGEST RESIDUAL FORCE            -9.095E-13   AT NODE         21   DOF  1
   INSTANCE: REINBAR-1                                                                       
 LARGEST INCREMENT OF DISP.         2.238E-03   AT NODE         21   DOF  1
   INSTANCE: REINBAR-1                                                                       
 LARGEST CORRECTION TO DISP.       -1.187E-18   AT NODE         20   DOF  1
   INSTANCE: REINBAR-1                                                                       
          THE FORCE     EQUILIBRIUM RESPONSE WAS LINEAR IN THIS INCREMENT
          TIME INCREMENT MAY NOW INCREASE TO    2.250E-02

 ITERATION SUMMARY FOR THE INCREMENT:   1 TOTAL ITERATIONS, OF WHICH
   0 ARE SEVERE DISCONTINUITY ITERATIONS AND  1 ARE EQUILIBRIUM ITERATIONS.

 TIME INCREMENT COMPLETED  1.500E-02,  FRACTION OF STEP COMPLETED  2.500E-02
 STEP TIME COMPLETED       5.000E-02,  TOTAL TIME COMPLETED        5.000E-02


  INCREMENT     5 STARTS. ATTEMPT NUMBER  1, TIME INCREMENT  2.250E-02
 
	SYMMETRIC DIRECT SPARSE SOLVER RUNNING ON
 	1 HOST:        1 MPI RANK  x 1 THREAD
 	NUMBER OF EQUATIONS:     23
 	NUMBER OF RHS:           1
 	NUMBER OF FLOPS:         4.640e+02

     CHECK POINT   START OF SOLVER    

     CHECK POINT  END OF SOLVER       

       ELAPSED USER TIME (SEC)      =   0.0000    
       ELAPSED SYSTEM TIME (SEC)    =   0.0000    
       ELAPSED TOTAL CPU TIME (SEC) =   0.0000    
       ELAPSED WALLCLOCK TIME (SEC) =          0

               CONVERGENCE CHECKS FOR EQUILIBRIUM ITERATION     1


 AVERAGE FORCE                      1.088E+03   TIME AVG. FORCE        543.    
 LARGEST RESIDUAL FORCE            -1.592E-12   AT NODE         20   DOF  1
   INSTANCE: REINBAR-1                                                                       
 LARGEST INCREMENT OF DISP.         3.357E-03   AT NODE         21   DOF  1
   INSTANCE: REINBAR-1                                                                       
 LARGEST CORRECTION TO DISP.        2.827E-18   AT NODE         20   DOF  1
   INSTANCE: REINBAR-1                                                                       
          THE FORCE     EQUILIBRIUM RESPONSE WAS LINEAR IN THIS INCREMENT
          TIME INCREMENT MAY NOW INCREASE TO    2.750E-02

 ITERATION SUMMARY FOR THE INCREMENT:   1 TOTAL ITERATIONS, OF WHICH
   0 ARE SEVERE DISCONTINUITY ITERATIONS AND  1 ARE EQUILIBRIUM ITERATIONS.

 TIME INCREMENT COMPLETED  2.250E-02,  FRACTION OF STEP COMPLETED  3.625E-02
 STEP TIME COMPLETED       7.250E-02,  TOTAL TIME COMPLETED        7.250E-02


  INCREMENT     6 STARTS. ATTEMPT NUMBER  1, TIME INCREMENT  2.750E-02
 
	SYMMETRIC DIRECT SPARSE SOLVER RUNNING ON
 	1 HOST:        1 MPI RANK  x 1 THREAD
 	NUMBER OF EQUATIONS:     23
 	NUMBER OF RHS:           1
 	NUMBER OF FLOPS:         4.640e+02

     CHECK POINT   START OF SOLVER    

     CHECK POINT  END OF SOLVER       

       ELAPSED USER TIME (SEC)      =   0.0000    
       ELAPSED SYSTEM TIME (SEC)    =   0.0000    
       ELAPSED TOTAL CPU TIME (SEC) =   0.0000    
       ELAPSED WALLCLOCK TIME (SEC) =          0

               CONVERGENCE CHECKS FOR EQUILIBRIUM ITERATION     1


 AVERAGE FORCE                      1.500E+03   TIME AVG. FORCE        702.    
 LARGEST RESIDUAL FORCE            -1.592E-12   AT NODE         13   DOF  1
   INSTANCE: REINBAR-1                                                                       
 LARGEST INCREMENT OF DISP.         4.103E-03   AT NODE         21   DOF  1
   INSTANCE: REINBAR-1                                                                       
 LARGEST CORRECTION TO DISP.        2.036E-18   AT NODE         18   DOF  1
   INSTANCE: REINBAR-1                                                                       
          THE FORCE     EQUILIBRIUM RESPONSE WAS LINEAR IN THIS INCREMENT
          TIME INCREMENT MAY NOW INCREASE TO    5.000E-02

 ITERATION SUMMARY FOR THE INCREMENT:   1 TOTAL ITERATIONS, OF WHICH
   0 ARE SEVERE DISCONTINUITY ITERATIONS AND  1 ARE EQUILIBRIUM ITERATIONS.

 TIME INCREMENT COMPLETED  2.750E-02,  FRACTION OF STEP COMPLETED  5.000E-02
 STEP TIME COMPLETED       0.100    ,  TOTAL TIME COMPLETED        0.100    


  INCREMENT     7 STARTS. ATTEMPT NUMBER  1, TIME INCREMENT  5.000E-02
 
	SYMMETRIC DIRECT SPARSE SOLVER RUNNING ON
 	1 HOST:        1 MPI RANK  x 1 THREAD
 	NUMBER OF EQUATIONS:     23
 	NUMBER OF RHS:           1
 	NUMBER OF FLOPS:         4.640e+02

     CHECK POINT   START OF SOLVER    

     CHECK POINT  END OF SOLVER       

       ELAPSED USER TIME (SEC)      =   0.0000    
       ELAPSED SYSTEM TIME (SEC)    =   0.0000    
       ELAPSED TOTAL CPU TIME (SEC) =   0.0000    
       ELAPSED WALLCLOCK TIME (SEC) =          0

               CONVERGENCE CHECKS FOR EQUILIBRIUM ITERATION     1


 AVERAGE FORCE                      2.250E+03   TIME AVG. FORCE        923.    
 LARGEST RESIDUAL FORCE            -6.366E-12   AT NODE         18   DOF  1
   INSTANCE: REINBAR-1                                                                       
 LARGEST INCREMENT OF DISP.         7.460E-03   AT NODE         21   DOF  1
   INSTANCE: REINBAR-1                                                                       
 LARGEST CORRECTION TO DISP.       -3.166E-18   AT NODE         19   DOF  1
   INSTANCE: REINBAR-1                                                                       
          THE FORCE     EQUILIBRIUM RESPONSE WAS LINEAR IN THIS INCREMENT
          TIME INCREMENT MAY NOW INCREASE TO    7.500E-02
          TIME INCREMENT REDUCED TO   5.000E-02 TO MEET NEXT OUTPUT TIME POINT

 ITERATION SUMMARY FOR THE INCREMENT:   1 TOTAL ITERATIONS, OF WHICH
   0 ARE SEVERE DISCONTINUITY ITERATIONS AND  1 ARE EQUILIBRIUM ITERATIONS.

 TIME INCREMENT COMPLETED  5.000E-02,  FRACTION OF STEP COMPLETED  7.500E-02
 STEP TIME COMPLETED       0.150    ,  TOTAL TIME COMPLETED        0.150    


  INCREMENT     8 STARTS. ATTEMPT NUMBER  1, TIME INCREMENT  5.000E-02
 
	SYMMETRIC DIRECT SPARSE SOLVER RUNNING ON
 	1 HOST:        1 MPI RANK  x 1 THREAD
 	NUMBER OF EQUATIONS:     23
 	NUMBER OF RHS:           1
 	NUMBER OF FLOPS:         4.640e+02

     CHECK POINT   START OF SOLVER    

     CHECK POINT  END OF SOLVER       

       ELAPSED USER TIME (SEC)      =   0.0000    
       ELAPSED SYSTEM TIME (SEC)    =   0.0000    
       ELAPSED TOTAL CPU TIME (SEC) =   0.0000    
       ELAPSED WALLCLOCK TIME (SEC) =          0

               CONVERGENCE CHECKS FOR EQUILIBRIUM ITERATION     1


 AVERAGE FORCE                      3.000E+03   TIME AVG. FORCE       1.183E+03
 LARGEST RESIDUAL FORCE            -4.093E-12   AT NODE         15   DOF  1
   INSTANCE: REINBAR-1                                                                       
 LARGEST INCREMENT OF DISP.         7.460E-03   AT NODE         21   DOF  1
   INSTANCE: REINBAR-1                                                                       
 LARGEST CORRECTION TO DISP.       -7.464E-18   AT NODE         18   DOF  1
   INSTANCE: REINBAR-1                                                                       
          THE FORCE     EQUILIBRIUM RESPONSE WAS LINEAR IN THIS INCREMENT
          TIME INCREMENT MAY NOW INCREASE TO    0.113    
          TIME INCREMENT REDUCED TO   5.000E-02 TO MEET NEXT OUTPUT TIME POINT

 ITERATION SUMMARY FOR THE INCREMENT:   1 TOTAL ITERATIONS, OF WHICH
   0 ARE SEVERE DISCONTINUITY ITERATIONS AND  1 ARE EQUILIBRIUM ITERATIONS.

 TIME INCREMENT COMPLETED  5.000E-02,  FRACTION OF STEP COMPLETED  0.100    
 STEP TIME COMPLETED       0.200    ,  TOTAL TIME COMPLETED        0.200    


  INCREMENT     9 STARTS. ATTEMPT NUMBER  1, TIME INCREMENT  5.000E-02
 
	SYMMETRIC DIRECT SPARSE SOLVER RUNNING ON
 	1 HOST:        1 MPI RANK  x 1 THREAD
 	NUMBER OF EQUATIONS:     23
 	NUMBER OF RHS:           1
 	NUMBER OF FLOPS:         4.640e+02

     CHECK POINT   START OF SOLVER    

     CHECK POINT  END OF SOLVER       

       ELAPSED USER TIME (SEC)      =   0.0000    
       ELAPSED SYSTEM TIME (SEC)    =   0.0000    
       ELAPSED TOTAL CPU TIME (SEC) =   0.0000    
       ELAPSED WALLCLOCK TIME (SEC) =          0

               CONVERGENCE CHECKS FOR EQUILIBRIUM ITERATION     1


 AVERAGE FORCE                      3.750E+03   TIME AVG. FORCE       1.468E+03
 LARGEST RESIDUAL FORCE            -4.093E-12   AT NODE         12   DOF  1
   INSTANCE: REINBAR-1                                                                       
 LARGEST INCREMENT OF DISP.         7.460E-03   AT NODE         21   DOF  1
   INSTANCE: REINBAR-1                                                                       
 LARGEST CORRECTION TO DISP.        6.333E-18   AT NODE         16   DOF  1
   INSTANCE: REINBAR-1                                                                       
          THE FORCE     EQUILIBRIUM RESPONSE WAS LINEAR IN THIS INCREMENT
          TIME INCREMENT MAY NOW INCREASE TO    0.113    
          TIME INCREMENT REDUCED TO   5.000E-02 TO MEET NEXT OUTPUT TIME POINT

 ITERATION SUMMARY FOR THE INCREMENT:   1 TOTAL ITERATIONS, OF WHICH
   0 ARE SEVERE DISCONTINUITY ITERATIONS AND  1 ARE EQUILIBRIUM ITERATIONS.

 TIME INCREMENT COMPLETED  5.000E-02,  FRACTION OF STEP COMPLETED  0.125    
 STEP TIME COMPLETED       0.250    ,  TOTAL TIME COMPLETED        0.250    


  INCREMENT    10 STARTS. ATTEMPT NUMBER  1, TIME INCREMENT  5.000E-02
 
	SYMMETRIC DIRECT SPARSE SOLVER RUNNING ON
 	1 HOST:        1 MPI RANK  x 1 THREAD
 	NUMBER OF EQUATIONS:     23
 	NUMBER OF RHS:           1
 	NUMBER OF FLOPS:         4.640e+02

     CHECK POINT   START OF SOLVER    

     CHECK POINT  END OF SOLVER       

       ELAPSED USER TIME (SEC)      =   0.0000    
       ELAPSED SYSTEM TIME (SEC)    =   0.0000    
       ELAPSED TOTAL CPU TIME (SEC) =   0.0000    
       ELAPSED WALLCLOCK TIME (SEC) =          0

               CONVERGENCE CHECKS FOR EQUILIBRIUM ITERATION     1


 AVERAGE FORCE                      4.500E+03   TIME AVG. FORCE       1.771E+03
 LARGEST RESIDUAL FORCE            -2.728E-12   AT NODE         14   DOF  1
   INSTANCE: REINBAR-1                                                                       
 LARGEST INCREMENT OF DISP.         7.460E-03   AT NODE         21   DOF  1
   INSTANCE: REINBAR-1                                                                       
 LARGEST CORRECTION TO DISP.       -3.619E-18   AT NODE         12   DOF  1
   INSTANCE: REINBAR-1                                                                       
          THE FORCE     EQUILIBRIUM RESPONSE WAS LINEAR IN THIS INCREMENT
          TIME INCREMENT MAY NOW INCREASE TO    0.113    
          TIME INCREMENT REDUCED TO   5.000E-02 TO MEET NEXT OUTPUT TIME POINT

 ITERATION SUMMARY FOR THE INCREMENT:   1 TOTAL ITERATIONS, OF WHICH
   0 ARE SEVERE DISCONTINUITY ITERATIONS AND  1 ARE EQUILIBRIUM ITERATIONS.

 TIME INCREMENT COMPLETED  5.000E-02,  FRACTION OF STEP COMPLETED  0.150    
 STEP TIME COMPLETED       0.300    ,  TOTAL TIME COMPLETED        0.300    


  INCREMENT    11 STARTS. ATTEMPT NUMBER  1, TIME INCREMENT  5.000E-02
 
	SYMMETRIC DIRECT SPARSE SOLVER RUNNING ON
 	1 HOST:        1 MPI RANK  x 1 THREAD
 	NUMBER OF EQUATIONS:     23
 	NUMBER OF RHS:           1
 	NUMBER OF FLOPS:         4.640e+02

     CHECK POINT   START OF SOLVER    

     CHECK POINT  END OF SOLVER       

       ELAPSED USER TIME (SEC)      =   0.0000    
       ELAPSED SYSTEM TIME (SEC)    =   0.0000    
       ELAPSED TOTAL CPU TIME (SEC) =   0.0000    
       ELAPSED WALLCLOCK TIME (SEC) =          0

               CONVERGENCE CHECKS FOR EQUILIBRIUM ITERATION     1


 AVERAGE FORCE                      5.250E+03   TIME AVG. FORCE       2.088E+03
 LARGEST RESIDUAL FORCE            -2.728E-12   AT NODE         18   DOF  1
   INSTANCE: REINBAR-1                                                                       
 LARGEST INCREMENT OF DISP.         7.460E-03   AT NODE         21   DOF  1
   INSTANCE: REINBAR-1                                                                       
 LARGEST CORRECTION TO DISP.        5.880E-18   AT NODE         16   DOF  1
   INSTANCE: REINBAR-1                                                                       
          THE FORCE     EQUILIBRIUM RESPONSE WAS LINEAR IN THIS INCREMENT
          TIME INCREMENT MAY NOW INCREASE TO    0.113    
          TIME INCREMENT REDUCED TO   5.000E-02 TO MEET NEXT OUTPUT TIME POINT

 ITERATION SUMMARY FOR THE INCREMENT:   1 TOTAL ITERATIONS, OF WHICH
   0 ARE SEVERE DISCONTINUITY ITERATIONS AND  1 ARE EQUILIBRIUM ITERATIONS.

 TIME INCREMENT COMPLETED  5.000E-02,  FRACTION OF STEP COMPLETED  0.175    
 STEP TIME COMPLETED       0.350    ,  TOTAL TIME COMPLETED        0.350    


  INCREMENT    12 STARTS. ATTEMPT NUMBER  1, TIME INCREMENT  5.000E-02
 
	SYMMETRIC DIRECT SPARSE SOLVER RUNNING ON
 	1 HOST:        1 MPI RANK  x 1 THREAD
 	NUMBER OF EQUATIONS:     23
 	NUMBER OF RHS:           1
 	NUMBER OF FLOPS:         4.640e+02

     CHECK POINT   START OF SOLVER    

     CHECK POINT  END OF SOLVER       

       ELAPSED USER TIME (SEC)      =   0.0000    
       ELAPSED SYSTEM TIME (SEC)    =   0.0000    
       ELAPSED TOTAL CPU TIME (SEC) =   0.0000    
       ELAPSED WALLCLOCK TIME (SEC) =          0

               CONVERGENCE CHECKS FOR EQUILIBRIUM ITERATION     1


 AVERAGE FORCE                      6.000E+03   TIME AVG. FORCE       2.414E+03
 LARGEST RESIDUAL FORCE            -4.547E-12   AT NODE         18   DOF  1
   INSTANCE: REINBAR-1                                                                       
 LARGEST INCREMENT OF DISP.         7.460E-03   AT NODE         21   DOF  1
   INSTANCE: REINBAR-1                                                                       
 LARGEST CORRECTION TO DISP.       -1.855E-17   AT NODE         21   DOF  1
   INSTANCE: REINBAR-1                                                                       
          THE FORCE     EQUILIBRIUM RESPONSE WAS LINEAR IN THIS INCREMENT
          TIME INCREMENT MAY NOW INCREASE TO    0.113    
          TIME INCREMENT REDUCED TO   5.000E-02 TO MEET NEXT OUTPUT TIME POINT

 ITERATION SUMMARY FOR THE INCREMENT:   1 TOTAL ITERATIONS, OF WHICH
   0 ARE SEVERE DISCONTINUITY ITERATIONS AND  1 ARE EQUILIBRIUM ITERATIONS.

 TIME INCREMENT COMPLETED  5.000E-02,  FRACTION OF STEP COMPLETED  0.200    
 STEP TIME COMPLETED       0.400    ,  TOTAL TIME COMPLETED        0.400    


  INCREMENT    13 STARTS. ATTEMPT NUMBER  1, TIME INCREMENT  5.000E-02
 
	SYMMETRIC DIRECT SPARSE SOLVER RUNNING ON
 	1 HOST:        1 MPI RANK  x 1 THREAD
 	NUMBER OF EQUATIONS:     23
 	NUMBER OF RHS:           1
 	NUMBER OF FLOPS:         4.640e+02

     CHECK POINT   START OF SOLVER    

     CHECK POINT  END OF SOLVER       

       ELAPSED USER TIME (SEC)      =   0.0000    
       ELAPSED SYSTEM TIME (SEC)    =   0.0000    
       ELAPSED TOTAL CPU TIME (SEC) =   0.0000    
       ELAPSED WALLCLOCK TIME (SEC) =          0

               CONVERGENCE CHECKS FOR EQUILIBRIUM ITERATION     1


 AVERAGE FORCE                      6.750E+03   TIME AVG. FORCE       2.747E+03
 LARGEST RESIDUAL FORCE             1.819E-12   AT NODE         13   DOF  1
   INSTANCE: REINBAR-1                                                                       
 LARGEST INCREMENT OF DISP.         7.460E-03   AT NODE         21   DOF  1
   INSTANCE: REINBAR-1                                                                       
 LARGEST CORRECTION TO DISP.        1.764E-17   AT NODE         20   DOF  1
   INSTANCE: REINBAR-1                                                                       
          THE FORCE     EQUILIBRIUM RESPONSE WAS LINEAR IN THIS INCREMENT
          TIME INCREMENT MAY NOW INCREASE TO    0.113    
          TIME INCREMENT REDUCED TO   5.000E-02 TO MEET NEXT OUTPUT TIME POINT

 ITERATION SUMMARY FOR THE INCREMENT:   1 TOTAL ITERATIONS, OF WHICH
   0 ARE SEVERE DISCONTINUITY ITERATIONS AND  1 ARE EQUILIBRIUM ITERATIONS.

 TIME INCREMENT COMPLETED  5.000E-02,  FRACTION OF STEP COMPLETED  0.225    
 STEP TIME COMPLETED       0.450    ,  TOTAL TIME COMPLETED        0.450    


  INCREMENT    14 STARTS. ATTEMPT NUMBER  1, TIME INCREMENT  5.000E-02
 
	SYMMETRIC DIRECT SPARSE SOLVER RUNNING ON
 	1 HOST:        1 MPI RANK  x 1 THREAD
 	NUMBER OF EQUATIONS:     23
 	NUMBER OF RHS:           1
 	NUMBER OF FLOPS:         4.640e+02

     CHECK POINT   START OF SOLVER    

     CHECK POINT  END OF SOLVER       

       ELAPSED USER TIME (SEC)      =   0.0000    
       ELAPSED SYSTEM TIME (SEC)    =   0.0000    
       ELAPSED TOTAL CPU TIME (SEC) =   0.0000    
       ELAPSED WALLCLOCK TIME (SEC) =          0

               CONVERGENCE CHECKS FOR EQUILIBRIUM ITERATION     1


 AVERAGE FORCE                      7.500E+03   TIME AVG. FORCE       3.087E+03
 LARGEST RESIDUAL FORCE            -2.728E-12   AT NODE         17   DOF  1
   INSTANCE: REINBAR-1                                                                       
 LARGEST INCREMENT OF DISP.         7.460E-03   AT NODE         21   DOF  1
   INSTANCE: REINBAR-1                                                                       
 LARGEST CORRECTION TO DISP.       -8.142E-18   AT NODE         19   DOF  1
   INSTANCE: REINBAR-1                                                                       
          THE FORCE     EQUILIBRIUM RESPONSE WAS LINEAR IN THIS INCREMENT
          TIME INCREMENT MAY NOW INCREASE TO    0.113    
          TIME INCREMENT REDUCED TO   5.000E-02 TO MEET NEXT OUTPUT TIME POINT

 ITERATION SUMMARY FOR THE INCREMENT:   1 TOTAL ITERATIONS, OF WHICH
   0 ARE SEVERE DISCONTINUITY ITERATIONS AND  1 ARE EQUILIBRIUM ITERATIONS.

 TIME INCREMENT COMPLETED  5.000E-02,  FRACTION OF STEP COMPLETED  0.250    
 STEP TIME COMPLETED       0.500    ,  TOTAL TIME COMPLETED        0.500    


  INCREMENT    15 STARTS. ATTEMPT NUMBER  1, TIME INCREMENT  5.000E-02
 
	SYMMETRIC DIRECT SPARSE SOLVER RUNNING ON
 	1 HOST:        1 MPI RANK  x 1 THREAD
 	NUMBER OF EQUATIONS:     23
 	NUMBER OF RHS:           1
 	NUMBER OF FLOPS:         4.640e+02

     CHECK POINT   START OF SOLVER    

     CHECK POINT  END OF SOLVER       

       ELAPSED USER TIME (SEC)      =   0.0000    
       ELAPSED SYSTEM TIME (SEC)    =   0.0000    
       ELAPSED TOTAL CPU TIME (SEC) =   0.0000    
       ELAPSED WALLCLOCK TIME (SEC) =          0

               CONVERGENCE CHECKS FOR EQUILIBRIUM ITERATION     1


 AVERAGE FORCE                      8.250E+03   TIME AVG. FORCE       3.431E+03
 LARGEST RESIDUAL FORCE             1.819E-12   AT NODE          8   DOF  1
   INSTANCE: REINBAR-1                                                                       
 LARGEST INCREMENT OF DISP.         7.460E-03   AT NODE         21   DOF  1
   INSTANCE: REINBAR-1                                                                       
 LARGEST CORRECTION TO DISP.       -7.238E-18   AT NODE         19   DOF  1
   INSTANCE: REINBAR-1                                                                       
          THE FORCE     EQUILIBRIUM RESPONSE WAS LINEAR IN THIS INCREMENT
          TIME INCREMENT MAY NOW INCREASE TO    0.113    
          TIME INCREMENT REDUCED TO   5.000E-02 TO MEET NEXT OUTPUT TIME POINT

 ITERATION SUMMARY FOR THE INCREMENT:   1 TOTAL ITERATIONS, OF WHICH
   0 ARE SEVERE DISCONTINUITY ITERATIONS AND  1 ARE EQUILIBRIUM ITERATIONS.

 TIME INCREMENT COMPLETED  5.000E-02,  FRACTION OF STEP COMPLETED  0.275    
 STEP TIME COMPLETED       0.550    ,  TOTAL TIME COMPLETED        0.550    


  INCREMENT    16 STARTS. ATTEMPT NUMBER  1, TIME INCREMENT  5.000E-02
 
	SYMMETRIC DIRECT SPARSE SOLVER RUNNING ON
 	1 HOST:        1 MPI RANK  x 1 THREAD
 	NUMBER OF EQUATIONS:     23
 	NUMBER OF RHS:           1
 	NUMBER OF FLOPS:         4.640e+02

     CHECK POINT   START OF SOLVER    

     CHECK POINT  END OF SOLVER       

       ELAPSED USER TIME (SEC)      =   0.0000    
       ELAPSED SYSTEM TIME (SEC)    =   0.0000    
       ELAPSED TOTAL CPU TIME (SEC) =   0.0000    
       ELAPSED WALLCLOCK TIME (SEC) =          0

               CONVERGENCE CHECKS FOR EQUILIBRIUM ITERATION     1


 AVERAGE FORCE                      9.000E+03   TIME AVG. FORCE       3.779E+03
 LARGEST RESIDUAL FORCE            -1.819E-12   AT NODE         11   DOF  1
   INSTANCE: REINBAR-1                                                                       
 LARGEST INCREMENT OF DISP.         7.460E-03   AT NODE         21   DOF  1
   INSTANCE: REINBAR-1                                                                       
 LARGEST CORRECTION TO DISP.        2.081E-17   AT NODE         21   DOF  1
   INSTANCE: REINBAR-1                                                                       
          THE FORCE     EQUILIBRIUM RESPONSE WAS LINEAR IN THIS INCREMENT
          TIME INCREMENT MAY NOW INCREASE TO    0.113    
          TIME INCREMENT REDUCED TO   5.000E-02 TO MEET NEXT OUTPUT TIME POINT

 ITERATION SUMMARY FOR THE INCREMENT:   1 TOTAL ITERATIONS, OF WHICH
   0 ARE SEVERE DISCONTINUITY ITERATIONS AND  1 ARE EQUILIBRIUM ITERATIONS.

 TIME INCREMENT COMPLETED  5.000E-02,  FRACTION OF STEP COMPLETED  0.300    
 STEP TIME COMPLETED       0.600    ,  TOTAL TIME COMPLETED        0.600    


  INCREMENT    17 STARTS. ATTEMPT NUMBER  1, TIME INCREMENT  5.000E-02
 
	SYMMETRIC DIRECT SPARSE SOLVER RUNNING ON
 	1 HOST:        1 MPI RANK  x 1 THREAD
 	NUMBER OF EQUATIONS:     23
 	NUMBER OF RHS:           1
 	NUMBER OF FLOPS:         4.640e+02

     CHECK POINT   START OF SOLVER    

     CHECK POINT  END OF SOLVER       

       ELAPSED USER TIME (SEC)      =   0.0000    
       ELAPSED SYSTEM TIME (SEC)    =   0.0000    
       ELAPSED TOTAL CPU TIME (SEC) =   0.0000    
       ELAPSED WALLCLOCK TIME (SEC) =          0

               CONVERGENCE CHECKS FOR EQUILIBRIUM ITERATION     1


 AVERAGE FORCE                      9.750E+03   TIME AVG. FORCE       4.130E+03
 LARGEST RESIDUAL FORCE             3.638E-12   AT NODE          7   DOF  1
   INSTANCE: REINBAR-1                                                                       
 LARGEST INCREMENT OF DISP.         7.460E-03   AT NODE         21   DOF  1
   INSTANCE: REINBAR-1                                                                       
 LARGEST CORRECTION TO DISP.        7.238E-18   AT NODE         13   DOF  1
   INSTANCE: REINBAR-1                                                                       
          THE FORCE     EQUILIBRIUM RESPONSE WAS LINEAR IN THIS INCREMENT
          TIME INCREMENT MAY NOW INCREASE TO    0.113    
          TIME INCREMENT REDUCED TO   5.000E-02 TO MEET NEXT OUTPUT TIME POINT

 ITERATION SUMMARY FOR THE INCREMENT:   1 TOTAL ITERATIONS, OF WHICH
   0 ARE SEVERE DISCONTINUITY ITERATIONS AND  1 ARE EQUILIBRIUM ITERATIONS.

 TIME INCREMENT COMPLETED  5.000E-02,  FRACTION OF STEP COMPLETED  0.325    
 STEP TIME COMPLETED       0.650    ,  TOTAL TIME COMPLETED        0.650    


  INCREMENT    18 STARTS. ATTEMPT NUMBER  1, TIME INCREMENT  5.000E-02
 
	SYMMETRIC DIRECT SPARSE SOLVER RUNNING ON
 	1 HOST:        1 MPI RANK  x 1 THREAD
 	NUMBER OF EQUATIONS:     23
 	NUMBER OF RHS:           1
 	NUMBER OF FLOPS:         4.640e+02

     CHECK POINT   START OF SOLVER    

     CHECK POINT  END OF SOLVER       

       ELAPSED USER TIME (SEC)      =   0.0000    
       ELAPSED SYSTEM TIME (SEC)    =   0.0000    
       ELAPSED TOTAL CPU TIME (SEC) =   0.0000    
       ELAPSED WALLCLOCK TIME (SEC) =          0

               CONVERGENCE CHECKS FOR EQUILIBRIUM ITERATION     1


 AVERAGE FORCE                      1.050E+04   TIME AVG. FORCE       4.484E+03
 LARGEST RESIDUAL FORCE            -5.457E-12   AT NODE         12   DOF  1
   INSTANCE: REINBAR-1                                                                       
 LARGEST INCREMENT OF DISP.         7.460E-03   AT NODE         21   DOF  1
   INSTANCE: REINBAR-1                                                                       
 LARGEST CORRECTION TO DISP.       -1.538E-17   AT NODE         20   DOF  1
   INSTANCE: REINBAR-1                                                                       
          THE FORCE     EQUILIBRIUM RESPONSE WAS LINEAR IN THIS INCREMENT
          TIME INCREMENT MAY NOW INCREASE TO    0.113    
          TIME INCREMENT REDUCED TO   5.000E-02 TO MEET NEXT OUTPUT TIME POINT

 ITERATION SUMMARY FOR THE INCREMENT:   1 TOTAL ITERATIONS, OF WHICH
   0 ARE SEVERE DISCONTINUITY ITERATIONS AND  1 ARE EQUILIBRIUM ITERATIONS.

 TIME INCREMENT COMPLETED  5.000E-02,  FRACTION OF STEP COMPLETED  0.350    
 STEP TIME COMPLETED       0.700    ,  TOTAL TIME COMPLETED        0.700    


  INCREMENT    19 STARTS. ATTEMPT NUMBER  1, TIME INCREMENT  5.000E-02
 
	SYMMETRIC DIRECT SPARSE SOLVER RUNNING ON
 	1 HOST:        1 MPI RANK  x 1 THREAD
 	NUMBER OF EQUATIONS:     23
 	NUMBER OF RHS:           1
 	NUMBER OF FLOPS:         4.640e+02

     CHECK POINT   START OF SOLVER    

     CHECK POINT  END OF SOLVER       

       ELAPSED USER TIME (SEC)      =   0.0000    
       ELAPSED SYSTEM TIME (SEC)    =   0.0000    
       ELAPSED TOTAL CPU TIME (SEC) =   0.0000    
       ELAPSED WALLCLOCK TIME (SEC) =          0

               CONVERGENCE CHECKS FOR EQUILIBRIUM ITERATION     1


 AVERAGE FORCE                      1.125E+04   TIME AVG. FORCE       4.840E+03
 LARGEST RESIDUAL FORCE            -5.457E-12   AT NODE         16   DOF  1
   INSTANCE: REINBAR-1                                                                       
 LARGEST INCREMENT OF DISP.         7.460E-03   AT NODE         21   DOF  1
   INSTANCE: REINBAR-1                                                                       
 LARGEST CORRECTION TO DISP.       -4.523E-18   AT NODE         21   DOF  1
   INSTANCE: REINBAR-1                                                                       
          THE FORCE     EQUILIBRIUM RESPONSE WAS LINEAR IN THIS INCREMENT
          TIME INCREMENT MAY NOW INCREASE TO    0.113    
          TIME INCREMENT REDUCED TO   5.000E-02 TO MEET NEXT OUTPUT TIME POINT

 ITERATION SUMMARY FOR THE INCREMENT:   1 TOTAL ITERATIONS, OF WHICH
   0 ARE SEVERE DISCONTINUITY ITERATIONS AND  1 ARE EQUILIBRIUM ITERATIONS.

 TIME INCREMENT COMPLETED  5.000E-02,  FRACTION OF STEP COMPLETED  0.375    
 STEP TIME COMPLETED       0.750    ,  TOTAL TIME COMPLETED        0.750    


  INCREMENT    20 STARTS. ATTEMPT NUMBER  1, TIME INCREMENT  5.000E-02
 
	SYMMETRIC DIRECT SPARSE SOLVER RUNNING ON
 	1 HOST:        1 MPI RANK  x 1 THREAD
 	NUMBER OF EQUATIONS:     23
 	NUMBER OF RHS:           1
 	NUMBER OF FLOPS:         4.640e+02

     CHECK POINT   START OF SOLVER    

     CHECK POINT  END OF SOLVER       

       ELAPSED USER TIME (SEC)      =   0.0000    
       ELAPSED SYSTEM TIME (SEC)    =   0.0000    
       ELAPSED TOTAL CPU TIME (SEC) =   0.0000    
       ELAPSED WALLCLOCK TIME (SEC) =          0

               CONVERGENCE CHECKS FOR EQUILIBRIUM ITERATION     1


 AVERAGE FORCE                      1.200E+04   TIME AVG. FORCE       5.198E+03
 LARGEST RESIDUAL FORCE             5.457E-12   AT NODE          7   DOF  1
   INSTANCE: REINBAR-1                                                                       
 LARGEST INCREMENT OF DISP.         7.460E-03   AT NODE         21   DOF  1
   INSTANCE: REINBAR-1                                                                       
 LARGEST CORRECTION TO DISP.       -7.238E-18   AT NODE         19   DOF  1
   INSTANCE: REINBAR-1                                                                       
          THE FORCE     EQUILIBRIUM RESPONSE WAS LINEAR IN THIS INCREMENT
          TIME INCREMENT MAY NOW INCREASE TO    0.113    
          TIME INCREMENT REDUCED TO   5.000E-02 TO MEET NEXT OUTPUT TIME POINT

 ITERATION SUMMARY FOR THE INCREMENT:   1 TOTAL ITERATIONS, OF WHICH
   0 ARE SEVERE DISCONTINUITY ITERATIONS AND  1 ARE EQUILIBRIUM ITERATIONS.

 TIME INCREMENT COMPLETED  5.000E-02,  FRACTION OF STEP COMPLETED  0.400    
 STEP TIME COMPLETED       0.800    ,  TOTAL TIME COMPLETED        0.800    


  INCREMENT    21 STARTS. ATTEMPT NUMBER  1, TIME INCREMENT  5.000E-02
 
	SYMMETRIC DIRECT SPARSE SOLVER RUNNING ON
 	1 HOST:        1 MPI RANK  x 1 THREAD
 	NUMBER OF EQUATIONS:     23
 	NUMBER OF RHS:           1
 	NUMBER OF FLOPS:         4.640e+02

     CHECK POINT   START OF SOLVER    

     CHECK POINT  END OF SOLVER       

       ELAPSED USER TIME (SEC)      =   0.0000    
       ELAPSED SYSTEM TIME (SEC)    =   0.0000    
       ELAPSED TOTAL CPU TIME (SEC) =   0.0000    
       ELAPSED WALLCLOCK TIME (SEC) =          0

               CONVERGENCE CHECKS FOR EQUILIBRIUM ITERATION     1


 AVERAGE FORCE                      1.275E+04   TIME AVG. FORCE       5.558E+03
 LARGEST RESIDUAL FORCE            -5.457E-12   AT NODE         11   DOF  1
   INSTANCE: REINBAR-1                                                                       
 LARGEST INCREMENT OF DISP.         7.460E-03   AT NODE         21   DOF  1
   INSTANCE: REINBAR-1                                                                       
 LARGEST CORRECTION TO DISP.        1.900E-17   AT NODE         19   DOF  1
   INSTANCE: REINBAR-1                                                                       
          THE FORCE     EQUILIBRIUM RESPONSE WAS LINEAR IN THIS INCREMENT
          TIME INCREMENT MAY NOW INCREASE TO    0.113    
          TIME INCREMENT REDUCED TO   5.000E-02 TO MEET NEXT OUTPUT TIME POINT

 ITERATION SUMMARY FOR THE INCREMENT:   1 TOTAL ITERATIONS, OF WHICH
   0 ARE SEVERE DISCONTINUITY ITERATIONS AND  1 ARE EQUILIBRIUM ITERATIONS.

 TIME INCREMENT COMPLETED  5.000E-02,  FRACTION OF STEP COMPLETED  0.425    
 STEP TIME COMPLETED       0.850    ,  TOTAL TIME COMPLETED        0.850    


  INCREMENT    22 STARTS. ATTEMPT NUMBER  1, TIME INCREMENT  5.000E-02
 
	SYMMETRIC DIRECT SPARSE SOLVER RUNNING ON
 	1 HOST:        1 MPI RANK  x 1 THREAD
 	NUMBER OF EQUATIONS:     23
 	NUMBER OF RHS:           1
 	NUMBER OF FLOPS:         4.640e+02

     CHECK POINT   START OF SOLVER    

     CHECK POINT  END OF SOLVER       

       ELAPSED USER TIME (SEC)      =   0.0000    
       ELAPSED SYSTEM TIME (SEC)    =   0.0000    
       ELAPSED TOTAL CPU TIME (SEC) =   0.0000    
       ELAPSED WALLCLOCK TIME (SEC) =          0

               CONVERGENCE CHECKS FOR EQUILIBRIUM ITERATION     1


 AVERAGE FORCE                      1.350E+04   TIME AVG. FORCE       5.919E+03
 LARGEST RESIDUAL FORCE             7.276E-12   AT NODE          7   DOF  1
   INSTANCE: REINBAR-1                                                                       
 LARGEST INCREMENT OF DISP.         7.460E-03   AT NODE         21   DOF  1
   INSTANCE: REINBAR-1                                                                       
 LARGEST CORRECTION TO DISP.       -1.538E-17   AT NODE         13   DOF  1
   INSTANCE: REINBAR-1                                                                       
          THE FORCE     EQUILIBRIUM RESPONSE WAS LINEAR IN THIS INCREMENT
          TIME INCREMENT MAY NOW INCREASE TO    0.113    
          TIME INCREMENT REDUCED TO   5.000E-02 TO MEET NEXT OUTPUT TIME POINT

 ITERATION SUMMARY FOR THE INCREMENT:   1 TOTAL ITERATIONS, OF WHICH
   0 ARE SEVERE DISCONTINUITY ITERATIONS AND  1 ARE EQUILIBRIUM ITERATIONS.

 TIME INCREMENT COMPLETED  5.000E-02,  FRACTION OF STEP COMPLETED  0.450    
 STEP TIME COMPLETED       0.900    ,  TOTAL TIME COMPLETED        0.900    


  INCREMENT    23 STARTS. ATTEMPT NUMBER  1, TIME INCREMENT  5.000E-02
 
	SYMMETRIC DIRECT SPARSE SOLVER RUNNING ON
 	1 HOST:        1 MPI RANK  x 1 THREAD
 	NUMBER OF EQUATIONS:     23
 	NUMBER OF RHS:           1
 	NUMBER OF FLOPS:         4.640e+02

     CHECK POINT   START OF SOLVER    

     CHECK POINT  END OF SOLVER       

       ELAPSED USER TIME (SEC)      =   0.0000    
       ELAPSED SYSTEM TIME (SEC)    =   0.0000    
       ELAPSED TOTAL CPU TIME (SEC) =   0.0000    
       ELAPSED WALLCLOCK TIME (SEC) =          0

               CONVERGENCE CHECKS FOR EQUILIBRIUM ITERATION     1


 AVERAGE FORCE                      1.425E+04   TIME AVG. FORCE       6.281E+03
 LARGEST RESIDUAL FORCE            -3.638E-12   AT NODE          8   DOF  1
   INSTANCE: REINBAR-1                                                                       
 LARGEST INCREMENT OF DISP.         7.460E-03   AT NODE         21   DOF  1
   INSTANCE: REINBAR-1                                                                       
 LARGEST CORRECTION TO DISP.        3.257E-17   AT NODE         21   DOF  1
   INSTANCE: REINBAR-1                                                                       
          THE FORCE     EQUILIBRIUM RESPONSE WAS LINEAR IN THIS INCREMENT
          TIME INCREMENT MAY NOW INCREASE TO    0.113    
          TIME INCREMENT REDUCED TO   5.000E-02 TO MEET NEXT OUTPUT TIME POINT

 ITERATION SUMMARY FOR THE INCREMENT:   1 TOTAL ITERATIONS, OF WHICH
   0 ARE SEVERE DISCONTINUITY ITERATIONS AND  1 ARE EQUILIBRIUM ITERATIONS.

 TIME INCREMENT COMPLETED  5.000E-02,  FRACTION OF STEP COMPLETED  0.475    
 STEP TIME COMPLETED       0.950    ,  TOTAL TIME COMPLETED        0.950    


  INCREMENT    24 STARTS. ATTEMPT NUMBER  1, TIME INCREMENT  5.000E-02
 
	SYMMETRIC DIRECT SPARSE SOLVER RUNNING ON
 	1 HOST:        1 MPI RANK  x 1 THREAD
 	NUMBER OF EQUATIONS:     23
 	NUMBER OF RHS:           1
 	NUMBER OF FLOPS:         4.640e+02

     CHECK POINT   START OF SOLVER    

     CHECK POINT  END OF SOLVER       

       ELAPSED USER TIME (SEC)      =   0.0000    
       ELAPSED SYSTEM TIME (SEC)    =   0.0000    
       ELAPSED TOTAL CPU TIME (SEC) =   0.0000    
       ELAPSED WALLCLOCK TIME (SEC) =          0

               CONVERGENCE CHECKS FOR EQUILIBRIUM ITERATION     1


 AVERAGE FORCE                      1.500E+04   TIME AVG. FORCE       6.644E+03
 LARGEST RESIDUAL FORCE             5.457E-12   AT NODE         20   DOF  1
   INSTANCE: REINBAR-1                                                                       
 LARGEST INCREMENT OF DISP.         7.460E-03   AT NODE         21   DOF  1
   INSTANCE: REINBAR-1                                                                       
 LARGEST CORRECTION TO DISP.       -2.352E-17   AT NODE         21   DOF  1
   INSTANCE: REINBAR-1                                                                       
          THE FORCE     EQUILIBRIUM RESPONSE WAS LINEAR IN THIS INCREMENT
          TIME INCREMENT MAY NOW INCREASE TO    0.113    
          TIME INCREMENT REDUCED TO   5.000E-02 TO MEET NEXT OUTPUT TIME POINT

 ITERATION SUMMARY FOR THE INCREMENT:   1 TOTAL ITERATIONS, OF WHICH
   0 ARE SEVERE DISCONTINUITY ITERATIONS AND  1 ARE EQUILIBRIUM ITERATIONS.

 TIME INCREMENT COMPLETED  5.000E-02,  FRACTION OF STEP COMPLETED  0.500    
 STEP TIME COMPLETED        1.00    ,  TOTAL TIME COMPLETED         1.00    


  INCREMENT    25 STARTS. ATTEMPT NUMBER  1, TIME INCREMENT  5.000E-02
 
	SYMMETRIC DIRECT SPARSE SOLVER RUNNING ON
 	1 HOST:        1 MPI RANK  x 1 THREAD
 	NUMBER OF EQUATIONS:     23
 	NUMBER OF RHS:           1
 	NUMBER OF FLOPS:         4.640e+02

     CHECK POINT   START OF SOLVER    

     CHECK POINT  END OF SOLVER       

       ELAPSED USER TIME (SEC)      =   0.0000    
       ELAPSED SYSTEM TIME (SEC)    =   0.0000    
       ELAPSED TOTAL CPU TIME (SEC) =   0.0000    
       ELAPSED WALLCLOCK TIME (SEC) =          0

               CONVERGENCE CHECKS FOR EQUILIBRIUM ITERATION     1


 AVERAGE FORCE                      1.575E+04   TIME AVG. FORCE       7.009E+03
 LARGEST RESIDUAL FORCE             5.457E-12   AT NODE         10   DOF  1
   INSTANCE: REINBAR-1                                                                       
 LARGEST INCREMENT OF DISP.         7.460E-03   AT NODE         21   DOF  1
   INSTANCE: REINBAR-1                                                                       
 LARGEST CORRECTION TO DISP.        7.238E-18   AT NODE         15   DOF  1
   INSTANCE: REINBAR-1                                                                       
          THE FORCE     EQUILIBRIUM RESPONSE WAS LINEAR IN THIS INCREMENT
          TIME INCREMENT MAY NOW INCREASE TO    0.113    
          TIME INCREMENT REDUCED TO   5.000E-02 TO MEET NEXT OUTPUT TIME POINT

 ITERATION SUMMARY FOR THE INCREMENT:   1 TOTAL ITERATIONS, OF WHICH
   0 ARE SEVERE DISCONTINUITY ITERATIONS AND  1 ARE EQUILIBRIUM ITERATIONS.

 TIME INCREMENT COMPLETED  5.000E-02,  FRACTION OF STEP COMPLETED  0.525    
 STEP TIME COMPLETED        1.05    ,  TOTAL TIME COMPLETED         1.05    


  INCREMENT    26 STARTS. ATTEMPT NUMBER  1, TIME INCREMENT  5.000E-02
 
	SYMMETRIC DIRECT SPARSE SOLVER RUNNING ON
 	1 HOST:        1 MPI RANK  x 1 THREAD
 	NUMBER OF EQUATIONS:     23
 	NUMBER OF RHS:           1
 	NUMBER OF FLOPS:         4.640e+02

     CHECK POINT   START OF SOLVER    

     CHECK POINT  END OF SOLVER       

       ELAPSED USER TIME (SEC)      =   0.0000    
       ELAPSED SYSTEM TIME (SEC)    =   0.0000    
       ELAPSED TOTAL CPU TIME (SEC) =   0.0000    
       ELAPSED WALLCLOCK TIME (SEC) =          0

               CONVERGENCE CHECKS FOR EQUILIBRIUM ITERATION     1


 AVERAGE FORCE                      1.650E+04   TIME AVG. FORCE       7.374E+03
 LARGEST RESIDUAL FORCE            -7.276E-12   AT NODE          9   DOF  1
   INSTANCE: REINBAR-1                                                                       
 LARGEST INCREMENT OF DISP.         7.460E-03   AT NODE         21   DOF  1
   INSTANCE: REINBAR-1                                                                       
 LARGEST CORRECTION TO DISP.       -4.704E-17   AT NODE         20   DOF  1
   INSTANCE: REINBAR-1                                                                       
          THE FORCE     EQUILIBRIUM RESPONSE WAS LINEAR IN THIS INCREMENT
          TIME INCREMENT MAY NOW INCREASE TO    0.113    
          TIME INCREMENT REDUCED TO   5.000E-02 TO MEET NEXT OUTPUT TIME POINT

 ITERATION SUMMARY FOR THE INCREMENT:   1 TOTAL ITERATIONS, OF WHICH
   0 ARE SEVERE DISCONTINUITY ITERATIONS AND  1 ARE EQUILIBRIUM ITERATIONS.

 TIME INCREMENT COMPLETED  5.000E-02,  FRACTION OF STEP COMPLETED  0.550    
 STEP TIME COMPLETED        1.10    ,  TOTAL TIME COMPLETED         1.10    


  INCREMENT    27 STARTS. ATTEMPT NUMBER  1, TIME INCREMENT  5.000E-02
 
	SYMMETRIC DIRECT SPARSE SOLVER RUNNING ON
 	1 HOST:        1 MPI RANK  x 1 THREAD
 	NUMBER OF EQUATIONS:     23
 	NUMBER OF RHS:           1
 	NUMBER OF FLOPS:         4.640e+02

     CHECK POINT   START OF SOLVER    

     CHECK POINT  END OF SOLVER       

       ELAPSED USER TIME (SEC)      =   0.0000    
       ELAPSED SYSTEM TIME (SEC)    =   0.0000    
       ELAPSED TOTAL CPU TIME (SEC) =   0.0000    
       ELAPSED WALLCLOCK TIME (SEC) =          0

               CONVERGENCE CHECKS FOR EQUILIBRIUM ITERATION     1


 AVERAGE FORCE                      1.725E+04   TIME AVG. FORCE       7.739E+03
 LARGEST RESIDUAL FORCE             3.638E-12   AT NODE          9   DOF  1
   INSTANCE: REINBAR-1                                                                       
 LARGEST INCREMENT OF DISP.         7.460E-03   AT NODE         21   DOF  1
   INSTANCE: REINBAR-1                                                                       
 LARGEST CORRECTION TO DISP.        4.523E-17   AT NODE         19   DOF  1
   INSTANCE: REINBAR-1                                                                       
          THE FORCE     EQUILIBRIUM RESPONSE WAS LINEAR IN THIS INCREMENT
          TIME INCREMENT MAY NOW INCREASE TO    0.113    
          TIME INCREMENT REDUCED TO   5.000E-02 TO MEET NEXT OUTPUT TIME POINT

 ITERATION SUMMARY FOR THE INCREMENT:   1 TOTAL ITERATIONS, OF WHICH
   0 ARE SEVERE DISCONTINUITY ITERATIONS AND  1 ARE EQUILIBRIUM ITERATIONS.

 TIME INCREMENT COMPLETED  5.000E-02,  FRACTION OF STEP COMPLETED  0.575    
 STEP TIME COMPLETED        1.15    ,  TOTAL TIME COMPLETED         1.15    


  INCREMENT    28 STARTS. ATTEMPT NUMBER  1, TIME INCREMENT  5.000E-02
 
	SYMMETRIC DIRECT SPARSE SOLVER RUNNING ON
 	1 HOST:        1 MPI RANK  x 1 THREAD
 	NUMBER OF EQUATIONS:     23
 	NUMBER OF RHS:           1
 	NUMBER OF FLOPS:         4.640e+02

     CHECK POINT   START OF SOLVER    

     CHECK POINT  END OF SOLVER       

       ELAPSED USER TIME (SEC)      =   0.0000    
       ELAPSED SYSTEM TIME (SEC)    =   0.0000    
       ELAPSED TOTAL CPU TIME (SEC) =   0.0000    
       ELAPSED WALLCLOCK TIME (SEC) =          0

               CONVERGENCE CHECKS FOR EQUILIBRIUM ITERATION     1


 AVERAGE FORCE                      1.800E+04   TIME AVG. FORCE       8.106E+03
 LARGEST RESIDUAL FORCE            -3.638E-12   AT NODE          3   DOF  1
   INSTANCE: REINBAR-1                                                                       
 LARGEST INCREMENT OF DISP.         7.460E-03   AT NODE         21   DOF  1
   INSTANCE: REINBAR-1                                                                       
 LARGEST CORRECTION TO DISP.        3.619E-17   AT NODE         21   DOF  1
   INSTANCE: REINBAR-1                                                                       
          THE FORCE     EQUILIBRIUM RESPONSE WAS LINEAR IN THIS INCREMENT
          TIME INCREMENT MAY NOW INCREASE TO    0.113    
          TIME INCREMENT REDUCED TO   5.000E-02 TO MEET NEXT OUTPUT TIME POINT

 ITERATION SUMMARY FOR THE INCREMENT:   1 TOTAL ITERATIONS, OF WHICH
   0 ARE SEVERE DISCONTINUITY ITERATIONS AND  1 ARE EQUILIBRIUM ITERATIONS.

 TIME INCREMENT COMPLETED  5.000E-02,  FRACTION OF STEP COMPLETED  0.600    
 STEP TIME COMPLETED        1.20    ,  TOTAL TIME COMPLETED         1.20    


  INCREMENT    29 STARTS. ATTEMPT NUMBER  1, TIME INCREMENT  5.000E-02
 
	SYMMETRIC DIRECT SPARSE SOLVER RUNNING ON
 	1 HOST:        1 MPI RANK  x 1 THREAD
 	NUMBER OF EQUATIONS:     23
 	NUMBER OF RHS:           1
 	NUMBER OF FLOPS:         4.640e+02

     CHECK POINT   START OF SOLVER    

     CHECK POINT  END OF SOLVER       

       ELAPSED USER TIME (SEC)      =   0.0000    
       ELAPSED SYSTEM TIME (SEC)    =   0.0000    
       ELAPSED TOTAL CPU TIME (SEC) =   0.0000    
       ELAPSED WALLCLOCK TIME (SEC) =          0

               CONVERGENCE CHECKS FOR EQUILIBRIUM ITERATION     1


 AVERAGE FORCE                      1.875E+04   TIME AVG. FORCE       8.473E+03
 LARGEST RESIDUAL FORCE            -3.638E-12   AT NODE          3   DOF  1
   INSTANCE: REINBAR-1                                                                       
 LARGEST INCREMENT OF DISP.         7.460E-03   AT NODE         21   DOF  1
   INSTANCE: REINBAR-1                                                                       
 LARGEST CORRECTION TO DISP.       -3.800E-17   AT NODE         21   DOF  1
   INSTANCE: REINBAR-1                                                                       
          THE FORCE     EQUILIBRIUM RESPONSE WAS LINEAR IN THIS INCREMENT
          TIME INCREMENT MAY NOW INCREASE TO    0.113    
          TIME INCREMENT REDUCED TO   5.000E-02 TO MEET NEXT OUTPUT TIME POINT

 ITERATION SUMMARY FOR THE INCREMENT:   1 TOTAL ITERATIONS, OF WHICH
   0 ARE SEVERE DISCONTINUITY ITERATIONS AND  1 ARE EQUILIBRIUM ITERATIONS.

 TIME INCREMENT COMPLETED  5.000E-02,  FRACTION OF STEP COMPLETED  0.625    
 STEP TIME COMPLETED        1.25    ,  TOTAL TIME COMPLETED         1.25    


  INCREMENT    30 STARTS. ATTEMPT NUMBER  1, TIME INCREMENT  5.000E-02
 
	SYMMETRIC DIRECT SPARSE SOLVER RUNNING ON
 	1 HOST:        1 MPI RANK  x 1 THREAD
 	NUMBER OF EQUATIONS:     23
 	NUMBER OF RHS:           1
 	NUMBER OF FLOPS:         4.640e+02

     CHECK POINT   START OF SOLVER    

     CHECK POINT  END OF SOLVER       

       ELAPSED USER TIME (SEC)      =   0.0000    
       ELAPSED SYSTEM TIME (SEC)    =   0.0000    
       ELAPSED TOTAL CPU TIME (SEC) =   0.0000    
       ELAPSED WALLCLOCK TIME (SEC) =          0

               CONVERGENCE CHECKS FOR EQUILIBRIUM ITERATION     1


 AVERAGE FORCE                      1.950E+04   TIME AVG. FORCE       8.840E+03
 LARGEST RESIDUAL FORCE            -3.638E-12   AT NODE         14   DOF  1
   INSTANCE: REINBAR-1                                                                       
 LARGEST INCREMENT OF DISP.         7.460E-03   AT NODE         21   DOF  1
   INSTANCE: REINBAR-1                                                                       
 LARGEST CORRECTION TO DISP.       -1.448E-17   AT NODE         18   DOF  1
   INSTANCE: REINBAR-1                                                                       
          THE FORCE     EQUILIBRIUM RESPONSE WAS LINEAR IN THIS INCREMENT
          TIME INCREMENT MAY NOW INCREASE TO    0.113    
          TIME INCREMENT REDUCED TO   5.000E-02 TO MEET NEXT OUTPUT TIME POINT

 ITERATION SUMMARY FOR THE INCREMENT:   1 TOTAL ITERATIONS, OF WHICH
   0 ARE SEVERE DISCONTINUITY ITERATIONS AND  1 ARE EQUILIBRIUM ITERATIONS.

 TIME INCREMENT COMPLETED  5.000E-02,  FRACTION OF STEP COMPLETED  0.650    
 STEP TIME COMPLETED        1.30    ,  TOTAL TIME COMPLETED         1.30    


  INCREMENT    31 STARTS. ATTEMPT NUMBER  1, TIME INCREMENT  5.000E-02
 
	SYMMETRIC DIRECT SPARSE SOLVER RUNNING ON
 	1 HOST:        1 MPI RANK  x 1 THREAD
 	NUMBER OF EQUATIONS:     23
 	NUMBER OF RHS:           1
 	NUMBER OF FLOPS:         4.640e+02

     CHECK POINT   START OF SOLVER    

     CHECK POINT  END OF SOLVER       

       ELAPSED USER TIME (SEC)      =   0.0000    
       ELAPSED SYSTEM TIME (SEC)    =   0.0000    
       ELAPSED TOTAL CPU TIME (SEC) =   0.0000    
       ELAPSED WALLCLOCK TIME (SEC) =          0

               CONVERGENCE CHECKS FOR EQUILIBRIUM ITERATION     1


 AVERAGE FORCE                      2.011E+04   TIME AVG. FORCE       9.204E+03
 LARGEST RESIDUAL FORCE              142.       AT NODE         21   DOF  1
   INSTANCE: REINBAR-1                                                                       
 LARGEST INCREMENT OF DISP.         8.881E-03   AT NODE         21   DOF  1
   INSTANCE: REINBAR-1                                                                       
 LARGEST CORRECTION TO DISP.        1.420E-03   AT NODE         21   DOF  1
   INSTANCE: REINBAR-1                                                                       
          FORCE     EQUILIBRIUM NOT ACHIEVED WITHIN TOLERANCE.
 
	SYMMETRIC DIRECT SPARSE SOLVER RUNNING ON
 	1 HOST:        1 MPI RANK  x 1 THREAD
 	NUMBER OF EQUATIONS:     23
 	NUMBER OF RHS:           1
 	NUMBER OF FLOPS:         4.640e+02

     CHECK POINT   START OF SOLVER    

     CHECK POINT  END OF SOLVER       

       ELAPSED USER TIME (SEC)      =   0.0000    
       ELAPSED SYSTEM TIME (SEC)    =   0.0000    
       ELAPSED TOTAL CPU TIME (SEC) =   0.0000    
       ELAPSED WALLCLOCK TIME (SEC) =          0

               CONVERGENCE CHECKS FOR EQUILIBRIUM ITERATION     2


 AVERAGE FORCE                      2.025E+04   TIME AVG. FORCE       9.208E+03
 LARGEST RESIDUAL FORCE             1.091E-11   AT NODE          5   DOF  1
   INSTANCE: REINBAR-1                                                                       
 LARGEST INCREMENT OF DISP.         0.212       AT NODE         21   DOF  1
   INSTANCE: REINBAR-1                                                                       
 LARGEST CORRECTION TO DISP.        0.203       AT NODE         21   DOF  1
   INSTANCE: REINBAR-1                                                                       
          THE FORCE     EQUILIBRIUM EQUATIONS HAVE CONVERGED
          TIME INCREMENT MAY NOW INCREASE TO    0.113    
          TIME INCREMENT REDUCED TO   5.000E-02 TO MEET NEXT OUTPUT TIME POINT

 ITERATION SUMMARY FOR THE INCREMENT:   2 TOTAL ITERATIONS, OF WHICH
   0 ARE SEVERE DISCONTINUITY ITERATIONS AND  2 ARE EQUILIBRIUM ITERATIONS.

 TIME INCREMENT COMPLETED  5.000E-02,  FRACTION OF STEP COMPLETED  0.675    
 STEP TIME COMPLETED        1.35    ,  TOTAL TIME COMPLETED         1.35    


  INCREMENT    32 STARTS. ATTEMPT NUMBER  1, TIME INCREMENT  5.000E-02
 
	SYMMETRIC DIRECT SPARSE SOLVER RUNNING ON
 	1 HOST:        1 MPI RANK  x 1 THREAD
 	NUMBER OF EQUATIONS:     23
 	NUMBER OF RHS:           1
 	NUMBER OF FLOPS:         4.640e+02

     CHECK POINT   START OF SOLVER    

     CHECK POINT  END OF SOLVER       

       ELAPSED USER TIME (SEC)      =   0.0000    
       ELAPSED SYSTEM TIME (SEC)    =   0.0000    
       ELAPSED TOTAL CPU TIME (SEC) =   0.0000    
       ELAPSED WALLCLOCK TIME (SEC) =          0

               CONVERGENCE CHECKS FOR EQUILIBRIUM ITERATION     1


 AVERAGE FORCE                      2.100E+04   TIME AVG. FORCE       9.577E+03
 LARGEST RESIDUAL FORCE            -2.547E-11   AT NODE          4   DOF  1
   INSTANCE: REINBAR-1                                                                       
 LARGEST INCREMENT OF DISP.          1.07       AT NODE         21   DOF  1
   INSTANCE: REINBAR-1                                                                       
 LARGEST CORRECTION TO DISP.        0.861       AT NODE         21   DOF  1
   INSTANCE: REINBAR-1                                                                       
          THE FORCE     EQUILIBRIUM RESPONSE WAS LINEAR IN THIS INCREMENT
          TIME INCREMENT MAY NOW INCREASE TO    0.113    
          TIME INCREMENT REDUCED TO   5.000E-02 TO MEET NEXT OUTPUT TIME POINT

 ITERATION SUMMARY FOR THE INCREMENT:   1 TOTAL ITERATIONS, OF WHICH
   0 ARE SEVERE DISCONTINUITY ITERATIONS AND  1 ARE EQUILIBRIUM ITERATIONS.

 TIME INCREMENT COMPLETED  5.000E-02,  FRACTION OF STEP COMPLETED  0.700    
 STEP TIME COMPLETED        1.40    ,  TOTAL TIME COMPLETED         1.40    


  INCREMENT    33 STARTS. ATTEMPT NUMBER  1, TIME INCREMENT  5.000E-02
 
	SYMMETRIC DIRECT SPARSE SOLVER RUNNING ON
 	1 HOST:        1 MPI RANK  x 1 THREAD
 	NUMBER OF EQUATIONS:     23
 	NUMBER OF RHS:           1
 	NUMBER OF FLOPS:         4.640e+02

     CHECK POINT   START OF SOLVER    

     CHECK POINT  END OF SOLVER       

       ELAPSED USER TIME (SEC)      =   0.0000    
       ELAPSED SYSTEM TIME (SEC)    =   0.0000    
       ELAPSED TOTAL CPU TIME (SEC) =   0.0000    
       ELAPSED WALLCLOCK TIME (SEC) =          0

               CONVERGENCE CHECKS FOR EQUILIBRIUM ITERATION     1


 AVERAGE FORCE                      2.175E+04   TIME AVG. FORCE       9.946E+03
 LARGEST RESIDUAL FORCE            -4.729E-11   AT NODE          3   DOF  1
   INSTANCE: REINBAR-1                                                                       
 LARGEST INCREMENT OF DISP.          1.07       AT NODE         21   DOF  1
   INSTANCE: REINBAR-1                                                                       
 LARGEST CORRECTION TO DISP.        3.410E-14   AT NODE         21   DOF  1
   INSTANCE: REINBAR-1                                                                       
          THE FORCE     EQUILIBRIUM RESPONSE WAS LINEAR IN THIS INCREMENT
          TIME INCREMENT MAY NOW INCREASE TO    0.113    
          TIME INCREMENT REDUCED TO   5.000E-02 TO MEET NEXT OUTPUT TIME POINT

 ITERATION SUMMARY FOR THE INCREMENT:   1 TOTAL ITERATIONS, OF WHICH
   0 ARE SEVERE DISCONTINUITY ITERATIONS AND  1 ARE EQUILIBRIUM ITERATIONS.

 TIME INCREMENT COMPLETED  5.000E-02,  FRACTION OF STEP COMPLETED  0.725    
 STEP TIME COMPLETED        1.45    ,  TOTAL TIME COMPLETED         1.45    


  INCREMENT    34 STARTS. ATTEMPT NUMBER  1, TIME INCREMENT  5.000E-02
 
	SYMMETRIC DIRECT SPARSE SOLVER RUNNING ON
 	1 HOST:        1 MPI RANK  x 1 THREAD
 	NUMBER OF EQUATIONS:     23
 	NUMBER OF RHS:           1
 	NUMBER OF FLOPS:         4.640e+02

     CHECK POINT   START OF SOLVER    

     CHECK POINT  END OF SOLVER       

       ELAPSED USER TIME (SEC)      =   0.0000    
       ELAPSED SYSTEM TIME (SEC)    =   0.0000    
       ELAPSED TOTAL CPU TIME (SEC) =   0.0000    
       ELAPSED WALLCLOCK TIME (SEC) =          0

               CONVERGENCE CHECKS FOR EQUILIBRIUM ITERATION     1


 AVERAGE FORCE                      2.250E+04   TIME AVG. FORCE       1.032E+04
 LARGEST RESIDUAL FORCE             7.276E-11   AT NODE         12   DOF  1
   INSTANCE: REINBAR-1                                                                       
 LARGEST INCREMENT OF DISP.          1.07       AT NODE         21   DOF  1
   INSTANCE: REINBAR-1                                                                       
 LARGEST CORRECTION TO DISP.       -2.291E-14   AT NODE         20   DOF  1
   INSTANCE: REINBAR-1                                                                       
          THE FORCE     EQUILIBRIUM RESPONSE WAS LINEAR IN THIS INCREMENT
          TIME INCREMENT MAY NOW INCREASE TO    0.113    
          TIME INCREMENT REDUCED TO   5.000E-02 TO MEET NEXT OUTPUT TIME POINT

 ITERATION SUMMARY FOR THE INCREMENT:   1 TOTAL ITERATIONS, OF WHICH
   0 ARE SEVERE DISCONTINUITY ITERATIONS AND  1 ARE EQUILIBRIUM ITERATIONS.

 TIME INCREMENT COMPLETED  5.000E-02,  FRACTION OF STEP COMPLETED  0.750    
 STEP TIME COMPLETED        1.50    ,  TOTAL TIME COMPLETED         1.50    


  INCREMENT    35 STARTS. ATTEMPT NUMBER  1, TIME INCREMENT  5.000E-02
 
	SYMMETRIC DIRECT SPARSE SOLVER RUNNING ON
 	1 HOST:        1 MPI RANK  x 1 THREAD
 	NUMBER OF EQUATIONS:     23
 	NUMBER OF RHS:           1
 	NUMBER OF FLOPS:         4.640e+02

     CHECK POINT   START OF SOLVER    

     CHECK POINT  END OF SOLVER       

       ELAPSED USER TIME (SEC)      =   0.0000    
       ELAPSED SYSTEM TIME (SEC)    =   0.0000    
       ELAPSED TOTAL CPU TIME (SEC) =   0.0000    
       ELAPSED WALLCLOCK TIME (SEC) =          0

               CONVERGENCE CHECKS FOR EQUILIBRIUM ITERATION     1


 AVERAGE FORCE                      2.325E+04   TIME AVG. FORCE       1.068E+04
 LARGEST RESIDUAL FORCE            -2.183E-11   AT NODE          3   DOF  1
   INSTANCE: REINBAR-1                                                                       
 LARGEST INCREMENT OF DISP.          1.07       AT NODE         21   DOF  1
   INSTANCE: REINBAR-1                                                                       
 LARGEST CORRECTION TO DISP.        1.171E-14   AT NODE         21   DOF  1
   INSTANCE: REINBAR-1                                                                       
          THE FORCE     EQUILIBRIUM RESPONSE WAS LINEAR IN THIS INCREMENT
          TIME INCREMENT MAY NOW INCREASE TO    0.113    
          TIME INCREMENT REDUCED TO   5.000E-02 TO MEET NEXT OUTPUT TIME POINT

 ITERATION SUMMARY FOR THE INCREMENT:   1 TOTAL ITERATIONS, OF WHICH
   0 ARE SEVERE DISCONTINUITY ITERATIONS AND  1 ARE EQUILIBRIUM ITERATIONS.

 TIME INCREMENT COMPLETED  5.000E-02,  FRACTION OF STEP COMPLETED  0.775    
 STEP TIME COMPLETED        1.55    ,  TOTAL TIME COMPLETED         1.55    


  INCREMENT    36 STARTS. ATTEMPT NUMBER  1, TIME INCREMENT  5.000E-02
 
	SYMMETRIC DIRECT SPARSE SOLVER RUNNING ON
 	1 HOST:        1 MPI RANK  x 1 THREAD
 	NUMBER OF EQUATIONS:     23
 	NUMBER OF RHS:           1
 	NUMBER OF FLOPS:         4.640e+02

     CHECK POINT   START OF SOLVER    

     CHECK POINT  END OF SOLVER       

       ELAPSED USER TIME (SEC)      =   0.0000    
       ELAPSED SYSTEM TIME (SEC)    =   0.0000    
       ELAPSED TOTAL CPU TIME (SEC) =   0.0000    
       ELAPSED WALLCLOCK TIME (SEC) =          0

               CONVERGENCE CHECKS FOR EQUILIBRIUM ITERATION     1


 AVERAGE FORCE                      2.400E+04   TIME AVG. FORCE       1.105E+04
 LARGEST RESIDUAL FORCE            -4.729E-11   AT NODE          3   DOF  1
   INSTANCE: REINBAR-1                                                                       
 LARGEST INCREMENT OF DISP.          1.07       AT NODE         21   DOF  1
   INSTANCE: REINBAR-1                                                                       
 LARGEST CORRECTION TO DISP.       -2.369E-14   AT NODE         21   DOF  1
   INSTANCE: REINBAR-1                                                                       
          THE FORCE     EQUILIBRIUM RESPONSE WAS LINEAR IN THIS INCREMENT
          TIME INCREMENT MAY NOW INCREASE TO    0.113    
          TIME INCREMENT REDUCED TO   5.000E-02 TO MEET NEXT OUTPUT TIME POINT

 ITERATION SUMMARY FOR THE INCREMENT:   1 TOTAL ITERATIONS, OF WHICH
   0 ARE SEVERE DISCONTINUITY ITERATIONS AND  1 ARE EQUILIBRIUM ITERATIONS.

 TIME INCREMENT COMPLETED  5.000E-02,  FRACTION OF STEP COMPLETED  0.800    
 STEP TIME COMPLETED        1.60    ,  TOTAL TIME COMPLETED         1.60    


  INCREMENT    37 STARTS. ATTEMPT NUMBER  1, TIME INCREMENT  5.000E-02
 
	SYMMETRIC DIRECT SPARSE SOLVER RUNNING ON
 	1 HOST:        1 MPI RANK  x 1 THREAD
 	NUMBER OF EQUATIONS:     23
 	NUMBER OF RHS:           1
 	NUMBER OF FLOPS:         4.640e+02

     CHECK POINT   START OF SOLVER    

     CHECK POINT  END OF SOLVER       

       ELAPSED USER TIME (SEC)      =   0.0000    
       ELAPSED SYSTEM TIME (SEC)    =   0.0000    
       ELAPSED TOTAL CPU TIME (SEC) =   0.0000    
       ELAPSED WALLCLOCK TIME (SEC) =          0

               CONVERGENCE CHECKS FOR EQUILIBRIUM ITERATION     1


 AVERAGE FORCE                      2.475E+04   TIME AVG. FORCE       1.142E+04
 LARGEST RESIDUAL FORCE             4.729E-11   AT NODE         15   DOF  1
   INSTANCE: REINBAR-1                                                                       
 LARGEST INCREMENT OF DISP.          1.07       AT NODE         21   DOF  1
   INSTANCE: REINBAR-1                                                                       
 LARGEST CORRECTION TO DISP.        2.993E-14   AT NODE         19   DOF  1
   INSTANCE: REINBAR-1                                                                       
          THE FORCE     EQUILIBRIUM RESPONSE WAS LINEAR IN THIS INCREMENT
          TIME INCREMENT MAY NOW INCREASE TO    0.113    
          TIME INCREMENT REDUCED TO   5.000E-02 TO MEET NEXT OUTPUT TIME POINT

 ITERATION SUMMARY FOR THE INCREMENT:   1 TOTAL ITERATIONS, OF WHICH
   0 ARE SEVERE DISCONTINUITY ITERATIONS AND  1 ARE EQUILIBRIUM ITERATIONS.

 TIME INCREMENT COMPLETED  5.000E-02,  FRACTION OF STEP COMPLETED  0.825    
 STEP TIME COMPLETED        1.65    ,  TOTAL TIME COMPLETED         1.65    


  INCREMENT    38 STARTS. ATTEMPT NUMBER  1, TIME INCREMENT  5.000E-02
 
	SYMMETRIC DIRECT SPARSE SOLVER RUNNING ON
 	1 HOST:        1 MPI RANK  x 1 THREAD
 	NUMBER OF EQUATIONS:     23
 	NUMBER OF RHS:           1
 	NUMBER OF FLOPS:         4.640e+02

     CHECK POINT   START OF SOLVER    

     CHECK POINT  END OF SOLVER       

       ELAPSED USER TIME (SEC)      =   0.0000    
       ELAPSED SYSTEM TIME (SEC)    =   0.0000    
       ELAPSED TOTAL CPU TIME (SEC) =   0.0000    
       ELAPSED WALLCLOCK TIME (SEC) =          0

               CONVERGENCE CHECKS FOR EQUILIBRIUM ITERATION     1


 AVERAGE FORCE                      2.550E+04   TIME AVG. FORCE       1.180E+04
 LARGEST RESIDUAL FORCE             4.729E-11   AT NODE          4   DOF  1
   INSTANCE: REINBAR-1                                                                       
 LARGEST INCREMENT OF DISP.          1.07       AT NODE         21   DOF  1
   INSTANCE: REINBAR-1                                                                       
 LARGEST CORRECTION TO DISP.       -2.421E-14   AT NODE         19   DOF  1
   INSTANCE: REINBAR-1                                                                       
          THE FORCE     EQUILIBRIUM RESPONSE WAS LINEAR IN THIS INCREMENT
          TIME INCREMENT MAY NOW INCREASE TO    0.113    
          TIME INCREMENT REDUCED TO   5.000E-02 TO MEET NEXT OUTPUT TIME POINT

 ITERATION SUMMARY FOR THE INCREMENT:   1 TOTAL ITERATIONS, OF WHICH
   0 ARE SEVERE DISCONTINUITY ITERATIONS AND  1 ARE EQUILIBRIUM ITERATIONS.

 TIME INCREMENT COMPLETED  5.000E-02,  FRACTION OF STEP COMPLETED  0.850    
 STEP TIME COMPLETED        1.70    ,  TOTAL TIME COMPLETED         1.70    


  INCREMENT    39 STARTS. ATTEMPT NUMBER  1, TIME INCREMENT  5.000E-02
 
	SYMMETRIC DIRECT SPARSE SOLVER RUNNING ON
 	1 HOST:        1 MPI RANK  x 1 THREAD
 	NUMBER OF EQUATIONS:     23
 	NUMBER OF RHS:           1
 	NUMBER OF FLOPS:         4.640e+02

     CHECK POINT   START OF SOLVER    

     CHECK POINT  END OF SOLVER       

       ELAPSED USER TIME (SEC)      =   0.0000    
       ELAPSED SYSTEM TIME (SEC)    =   0.0000    
       ELAPSED TOTAL CPU TIME (SEC) =   0.0000    
       ELAPSED WALLCLOCK TIME (SEC) =          0

               CONVERGENCE CHECKS FOR EQUILIBRIUM ITERATION     1


 AVERAGE FORCE                      2.625E+04   TIME AVG. FORCE       1.217E+04
 LARGEST RESIDUAL FORCE             4.729E-11   AT NODE          5   DOF  1
   INSTANCE: REINBAR-1                                                                       
 LARGEST INCREMENT OF DISP.          1.07       AT NODE         21   DOF  1
   INSTANCE: REINBAR-1                                                                       
 LARGEST CORRECTION TO DISP.       -6.247E-15   AT NODE          5   DOF  1
   INSTANCE: REINBAR-1                                                                       
          THE FORCE     EQUILIBRIUM RESPONSE WAS LINEAR IN THIS INCREMENT
          TIME INCREMENT MAY NOW INCREASE TO    0.113    
          TIME INCREMENT REDUCED TO   5.000E-02 TO MEET NEXT OUTPUT TIME POINT

 ITERATION SUMMARY FOR THE INCREMENT:   1 TOTAL ITERATIONS, OF WHICH
   0 ARE SEVERE DISCONTINUITY ITERATIONS AND  1 ARE EQUILIBRIUM ITERATIONS.

 TIME INCREMENT COMPLETED  5.000E-02,  FRACTION OF STEP COMPLETED  0.875    
 STEP TIME COMPLETED        1.75    ,  TOTAL TIME COMPLETED         1.75    


  INCREMENT    40 STARTS. ATTEMPT NUMBER  1, TIME INCREMENT  5.000E-02
 
	SYMMETRIC DIRECT SPARSE SOLVER RUNNING ON
 	1 HOST:        1 MPI RANK  x 1 THREAD
 	NUMBER OF EQUATIONS:     23
 	NUMBER OF RHS:           1
 	NUMBER OF FLOPS:         4.640e+02

     CHECK POINT   START OF SOLVER    

     CHECK POINT  END OF SOLVER       

       ELAPSED USER TIME (SEC)      =   0.0000    
       ELAPSED SYSTEM TIME (SEC)    =   0.0000    
       ELAPSED TOTAL CPU TIME (SEC) =   0.0000    
       ELAPSED WALLCLOCK TIME (SEC) =          0

               CONVERGENCE CHECKS FOR EQUILIBRIUM ITERATION     1


 AVERAGE FORCE                      2.700E+04   TIME AVG. FORCE       1.254E+04
 LARGEST RESIDUAL FORCE             4.729E-11   AT NODE          8   DOF  1
   INSTANCE: REINBAR-1                                                                       
 LARGEST INCREMENT OF DISP.          1.07       AT NODE         21   DOF  1
   INSTANCE: REINBAR-1                                                                       
 LARGEST CORRECTION TO DISP.        1.614E-14   AT NODE         20   DOF  1
   INSTANCE: REINBAR-1                                                                       
          THE FORCE     EQUILIBRIUM RESPONSE WAS LINEAR IN THIS INCREMENT
          TIME INCREMENT MAY NOW INCREASE TO    0.113    
          TIME INCREMENT REDUCED TO   5.000E-02 TO MEET NEXT OUTPUT TIME POINT

 ITERATION SUMMARY FOR THE INCREMENT:   1 TOTAL ITERATIONS, OF WHICH
   0 ARE SEVERE DISCONTINUITY ITERATIONS AND  1 ARE EQUILIBRIUM ITERATIONS.

 TIME INCREMENT COMPLETED  5.000E-02,  FRACTION OF STEP COMPLETED  0.900    
 STEP TIME COMPLETED        1.80    ,  TOTAL TIME COMPLETED         1.80    


  INCREMENT    41 STARTS. ATTEMPT NUMBER  1, TIME INCREMENT  5.000E-02
 
	SYMMETRIC DIRECT SPARSE SOLVER RUNNING ON
 	1 HOST:        1 MPI RANK  x 1 THREAD
 	NUMBER OF EQUATIONS:     23
 	NUMBER OF RHS:           1
 	NUMBER OF FLOPS:         4.640e+02

     CHECK POINT   START OF SOLVER    

     CHECK POINT  END OF SOLVER       

       ELAPSED USER TIME (SEC)      =   0.0000    
       ELAPSED SYSTEM TIME (SEC)    =   0.0000    
       ELAPSED TOTAL CPU TIME (SEC) =   0.0000    
       ELAPSED WALLCLOCK TIME (SEC) =          0

               CONVERGENCE CHECKS FOR EQUILIBRIUM ITERATION     1


 AVERAGE FORCE                      2.716E+04   TIME AVG. FORCE       1.289E+04
 LARGEST RESIDUAL FORCE              607.       AT NODE         21   DOF  1
   INSTANCE: REINBAR-1                                                                       
 LARGEST INCREMENT OF DISP.          1.94       AT NODE         21   DOF  1
   INSTANCE: REINBAR-1                                                                       
 LARGEST CORRECTION TO DISP.        0.868       AT NODE         21   DOF  1
   INSTANCE: REINBAR-1                                                                       
          FORCE     EQUILIBRIUM NOT ACHIEVED WITHIN TOLERANCE.
 
	SYMMETRIC DIRECT SPARSE SOLVER RUNNING ON
 	1 HOST:        1 MPI RANK  x 1 THREAD
 	NUMBER OF EQUATIONS:     23
 	NUMBER OF RHS:           1
 	NUMBER OF FLOPS:         4.640e+02

     CHECK POINT   START OF SOLVER    

     CHECK POINT  END OF SOLVER       

       ELAPSED USER TIME (SEC)      =   0.0000    
       ELAPSED SYSTEM TIME (SEC)    =   0.0000    
       ELAPSED TOTAL CPU TIME (SEC) =   0.0000    
       ELAPSED WALLCLOCK TIME (SEC) =          0
 

 ***WARNING: SOLVER PROBLEM. NUMERICAL SINGULARITY WHEN PROCESSING NODE 
             REINBAR-1.21 D.O.F. 1. THIS NODE HAS NO STIFFNESS IN THE SPECIFIED 
             DIRECTION AND IS NOT COUPLED WITH THE REST OF THE MODEL.
 

 ***WARNING: SOLVER PROBLEM. NUMERICAL SINGULARITY WHEN PROCESSING NODE 
             REINBAR-1.6 D.O.F. 1. THIS NODE HAS NO STIFFNESS IN THE SPECIFIED 
             DIRECTION AND IS NOT COUPLED WITH THE REST OF THE MODEL.
 

 ***WARNING: SOLVER PROBLEM. NUMERICAL SINGULARITY WHEN PROCESSING NODE 
             REINBAR-1.7 D.O.F. 1. THIS NODE HAS NO STIFFNESS IN THE SPECIFIED 
             DIRECTION AND IS NOT COUPLED WITH THE REST OF THE MODEL.

 ***WARNING: SOLVER PROBLEM.  ZERO PIVOT WHEN PROCESSING NODE 4 INSTANCE 
             REINBAR-1 D.O.F. 1
  Typically a zero pivot is associated with an overconstraint in the model. 
 However, Abaqus was not able to identify any chains of constraints that might 
 lead to an overconstraint at this node. This suggests that the model might be 
 in fact insufficiently constrained in this particular degree of freedom. 
 Please check the constraints used in this model. 


 ***WARNING: SOLVER PROBLEM.  ZERO PIVOT WHEN PROCESSING NODE 13 INSTANCE 
             REINBAR-1 D.O.F. 1
  Typically a zero pivot is associated with an overconstraint in the model. 
 However, Abaqus was not able to identify any chains of constraints that might 
 lead to an overconstraint at this node. This suggests that the model might be 
 in fact insufficiently constrained in this particular degree of freedom. 
 Please check the constraints used in this model. 


 ***WARNING: SOLVER PROBLEM.  ZERO PIVOT WHEN PROCESSING NODE 10 INSTANCE 
             REINBAR-1 D.O.F. 1
  Typically a zero pivot is associated with an overconstraint in the model. 
 However, Abaqus was not able to identify any chains of constraints that might 
 lead to an overconstraint at this node. This suggests that the model might be 
 in fact insufficiently constrained in this particular degree of freedom. 
 Please check the constraints used in this model. 


 ***WARNING: Solver problem. Zero pivot when processing D.O.F. 1 of 3 nodes. 
             The nodes have been identified in node set 
             WarnNodeSolvProbZeroPiv_1_1_41_2_1.

               CONVERGENCE CHECKS FOR EQUILIBRIUM ITERATION     2


 AVERAGE FORCE                      2.716E+04   TIME AVG. FORCE       1.289E+04
 LARGEST RESIDUAL FORCE              607.       AT NODE         21   DOF  1
   INSTANCE: REINBAR-1                                                                       
 LARGEST INCREMENT OF DISP.          1.94       AT NODE         21   DOF  1
   INSTANCE: REINBAR-1                                                                       
 LARGEST CORRECTION TO DISP.       -0.149       AT NODE          3   DOF  1
   INSTANCE: REINBAR-1                                                                       
          FORCE     EQUILIBRIUM NOT ACHIEVED WITHIN TOLERANCE.
 
	SYMMETRIC DIRECT SPARSE SOLVER RUNNING ON
 	1 HOST:        1 MPI RANK  x 1 THREAD
 	NUMBER OF EQUATIONS:     23
 	NUMBER OF RHS:           1
 	NUMBER OF FLOPS:         4.640e+02

     CHECK POINT   START OF SOLVER    

     CHECK POINT  END OF SOLVER       

       ELAPSED USER TIME (SEC)      =   0.0000    
       ELAPSED SYSTEM TIME (SEC)    =   0.0000    
       ELAPSED TOTAL CPU TIME (SEC) =   0.0000    
       ELAPSED WALLCLOCK TIME (SEC) =          0
 

 ***WARNING: SOLVER PROBLEM. NUMERICAL SINGULARITY WHEN PROCESSING NODE 
             REINBAR-1.21 D.O.F. 1. THIS NODE HAS NO STIFFNESS IN THE SPECIFIED 
             DIRECTION AND IS NOT COUPLED WITH THE REST OF THE MODEL.
 

 ***WARNING: SOLVER PROBLEM. NUMERICAL SINGULARITY WHEN PROCESSING NODE 
             REINBAR-1.6 D.O.F. 1. THIS NODE HAS NO STIFFNESS IN THE SPECIFIED 
             DIRECTION AND IS NOT COUPLED WITH THE REST OF THE MODEL.
 

 ***WARNING: SOLVER PROBLEM. NUMERICAL SINGULARITY WHEN PROCESSING NODE 
             REINBAR-1.7 D.O.F. 1. THIS NODE HAS NO STIFFNESS IN THE SPECIFIED 
[...]
 LARGEST RESIDUAL FORCE            -1.091E-11   AT NODE          8   DOF  1
   INSTANCE: REINBAR-1                                                                       
 LARGEST INCREMENT OF DISP.         5.187E-06   AT NODE         21   DOF  1
   INSTANCE: REINBAR-1                                                                       
 LARGEST CORRECTION TO DISP.        5.187E-06   AT NODE         21   DOF  1
   INSTANCE: REINBAR-1                                                                       
          THE FORCE     EQUILIBRIUM RESPONSE WAS LINEAR IN THIS INCREMENT
          TIME INCREMENT MAY NOW INCREASE TO    5.214E-05

 ITERATION SUMMARY FOR THE INCREMENT:   1 TOTAL ITERATIONS, OF WHICH
   0 ARE SEVERE DISCONTINUITY ITERATIONS AND  1 ARE EQUILIBRIUM ITERATIONS.

 TIME INCREMENT COMPLETED  3.4761429E-05,  FRACTION OF STEP COMPLETED  0.9047819    
 STEP TIME COMPLETED        1.809564    ,  TOTAL TIME COMPLETED         1.809564    


  INCREMENT    48 STARTS. ATTEMPT NUMBER  1, TIME INCREMENT  5.214E-05
 
	SYMMETRIC DIRECT SPARSE SOLVER RUNNING ON
 	1 HOST:        1 MPI RANK  x 1 THREAD
 	NUMBER OF EQUATIONS:     23
 	NUMBER OF RHS:           1
 	NUMBER OF FLOPS:         4.640e+02

     CHECK POINT   START OF SOLVER    

     CHECK POINT  END OF SOLVER       

       ELAPSED USER TIME (SEC)      =   0.0000    
       ELAPSED SYSTEM TIME (SEC)    =   0.0000    
       ELAPSED TOTAL CPU TIME (SEC) =   0.0000    
       ELAPSED WALLCLOCK TIME (SEC) =          0

               CONVERGENCE CHECKS FOR EQUILIBRIUM ITERATION     1


 AVERAGE FORCE                      2.714E+04   TIME AVG. FORCE       1.497E+04
 LARGEST RESIDUAL FORCE            -7.276E-12   AT NODE          8   DOF  1
   INSTANCE: REINBAR-1                                                                       
 LARGEST INCREMENT OF DISP.         7.780E-06   AT NODE         21   DOF  1
   INSTANCE: REINBAR-1                                                                       
 LARGEST CORRECTION TO DISP.       -7.238E-17   AT NODE         17   DOF  1
   INSTANCE: REINBAR-1                                                                       
          THE FORCE     EQUILIBRIUM RESPONSE WAS LINEAR IN THIS INCREMENT
          TIME INCREMENT MAY NOW INCREASE TO    7.821E-05

 ITERATION SUMMARY FOR THE INCREMENT:   1 TOTAL ITERATIONS, OF WHICH
   0 ARE SEVERE DISCONTINUITY ITERATIONS AND  1 ARE EQUILIBRIUM ITERATIONS.

 TIME INCREMENT COMPLETED  5.2142143E-05,  FRACTION OF STEP COMPLETED  0.9048080    
 STEP TIME COMPLETED        1.809616    ,  TOTAL TIME COMPLETED         1.809616    


  INCREMENT    49 STARTS. ATTEMPT NUMBER  1, TIME INCREMENT  7.821E-05
 
	SYMMETRIC DIRECT SPARSE SOLVER RUNNING ON
 	1 HOST:        1 MPI RANK  x 1 THREAD
 	NUMBER OF EQUATIONS:     23
 	NUMBER OF RHS:           1
 	NUMBER OF FLOPS:         4.640e+02

     CHECK POINT   START OF SOLVER    

     CHECK POINT  END OF SOLVER       

       ELAPSED USER TIME (SEC)      =   0.0000    
       ELAPSED SYSTEM TIME (SEC)    =   0.0000    
       ELAPSED TOTAL CPU TIME (SEC) =   0.0000    
       ELAPSED WALLCLOCK TIME (SEC) =          0

               CONVERGENCE CHECKS FOR EQUILIBRIUM ITERATION     1


 AVERAGE FORCE                      2.715E+04   TIME AVG. FORCE       1.522E+04
 LARGEST RESIDUAL FORCE            -7.276E-12   AT NODE          4   DOF  1
   INSTANCE: REINBAR-1                                                                       
 LARGEST INCREMENT OF DISP.         1.167E-05   AT NODE         21   DOF  1
   INSTANCE: REINBAR-1                                                                       
 LARGEST CORRECTION TO DISP.        3.800E-17   AT NODE         21   DOF  1
   INSTANCE: REINBAR-1                                                                       
          THE FORCE     EQUILIBRIUM RESPONSE WAS LINEAR IN THIS INCREMENT
          TIME INCREMENT MAY NOW INCREASE TO    1.173E-04

 ITERATION SUMMARY FOR THE INCREMENT:   1 TOTAL ITERATIONS, OF WHICH
   0 ARE SEVERE DISCONTINUITY ITERATIONS AND  1 ARE EQUILIBRIUM ITERATIONS.

 TIME INCREMENT COMPLETED  7.8213215E-05,  FRACTION OF STEP COMPLETED  0.9048471    
 STEP TIME COMPLETED        1.809694    ,  TOTAL TIME COMPLETED         1.809694    


  INCREMENT    50 STARTS. ATTEMPT NUMBER  1, TIME INCREMENT  1.173E-04
 
	SYMMETRIC DIRECT SPARSE SOLVER RUNNING ON
 	1 HOST:        1 MPI RANK  x 1 THREAD
 	NUMBER OF EQUATIONS:     23
 	NUMBER OF RHS:           1
 	NUMBER OF FLOPS:         4.640e+02

     CHECK POINT   START OF SOLVER    

     CHECK POINT  END OF SOLVER       

       ELAPSED USER TIME (SEC)      =   0.0000    
       ELAPSED SYSTEM TIME (SEC)    =   0.0000    
       ELAPSED TOTAL CPU TIME (SEC) =   0.0000    
       ELAPSED WALLCLOCK TIME (SEC) =          0

               CONVERGENCE CHECKS FOR EQUILIBRIUM ITERATION     1


 AVERAGE FORCE                      2.714E+04   TIME AVG. FORCE       1.545E+04
 LARGEST RESIDUAL FORCE              4.18       AT NODE         21   DOF  1
   INSTANCE: REINBAR-1                                                                       
 LARGEST INCREMENT OF DISP.         5.935E-05   AT NODE         21   DOF  1
   INSTANCE: REINBAR-1                                                                       
 LARGEST CORRECTION TO DISP.        4.185E-05   AT NODE         21   DOF  1
   INSTANCE: REINBAR-1                                                                       
          DISP.    CORRECTION TOO LARGE COMPARED TO DISP.    INCREMENT
 
	SYMMETRIC DIRECT SPARSE SOLVER RUNNING ON
 	1 HOST:        1 MPI RANK  x 1 THREAD
 	NUMBER OF EQUATIONS:     23
 	NUMBER OF RHS:           1
 	NUMBER OF FLOPS:         4.640e+02

     CHECK POINT   START OF SOLVER    

     CHECK POINT  END OF SOLVER       

       ELAPSED USER TIME (SEC)      =   0.0000    
       ELAPSED SYSTEM TIME (SEC)    =   0.0000    
       ELAPSED TOTAL CPU TIME (SEC) =   0.0000    
       ELAPSED WALLCLOCK TIME (SEC) =          0

               CONVERGENCE CHECKS FOR EQUILIBRIUM ITERATION     2


 AVERAGE FORCE                      2.714E+04   TIME AVG. FORCE       1.545E+04
 LARGEST RESIDUAL FORCE              3.80       AT NODE         21   DOF  1
   INSTANCE: REINBAR-1                                                                       
 LARGEST INCREMENT OF DISP.         6.038E-03   AT NODE         21   DOF  1
   INSTANCE: REINBAR-1                                                                       
 LARGEST CORRECTION TO DISP.        5.978E-03   AT NODE         21   DOF  1
   INSTANCE: REINBAR-1                                                                       
          DISP.    CORRECTION TOO LARGE COMPARED TO DISP.    INCREMENT
 
	SYMMETRIC DIRECT SPARSE SOLVER RUNNING ON
 	1 HOST:        1 MPI RANK  x 1 THREAD
 	NUMBER OF EQUATIONS:     23
 	NUMBER OF RHS:           1
 	NUMBER OF FLOPS:         4.640e+02

     CHECK POINT   START OF SOLVER    

     CHECK POINT  END OF SOLVER       

       ELAPSED USER TIME (SEC)      =   0.0000    
       ELAPSED SYSTEM TIME (SEC)    =   0.0000    
       ELAPSED TOTAL CPU TIME (SEC) =   0.0000    
       ELAPSED WALLCLOCK TIME (SEC) =          0

 ***WARNING: SOLVER PROBLEM.  ZERO PIVOT WHEN PROCESSING NODE 17 INSTANCE 
             REINBAR-1 D.O.F. 1
  Typically a zero pivot is associated with an overconstraint in the model. 
 However, Abaqus was not able to identify any chains of constraints that might 
 lead to an overconstraint at this node. This suggests that the model might be 
 in fact insufficiently constrained in this particular degree of freedom. 
 Please check the constraints used in this model. 


 ***WARNING: SOLVER PROBLEM.  ZERO PIVOT WHEN PROCESSING NODE 12 INSTANCE 
             REINBAR-1 D.O.F. 1
  Typically a zero pivot is associated with an overconstraint in the model. 
 However, Abaqus was not able to identify any chains of constraints that might 
 lead to an overconstraint at this node. This suggests that the model might be 
 in fact insufficiently constrained in this particular degree of freedom. 
 Please check the constraints used in this model. 


 ***WARNING: SOLVER PROBLEM.  ZERO PIVOT WHEN PROCESSING NODE 15 INSTANCE 
             REINBAR-1 D.O.F. 1
  Typically a zero pivot is associated with an overconstraint in the model. 
 However, Abaqus was not able to identify any chains of constraints that might 
 lead to an overconstraint at this node. This suggests that the model might be 
 in fact insufficiently constrained in this particular degree of freedom. 
 Please check the constraints used in this model. 


 ***WARNING: SOLVER PROBLEM.  ZERO PIVOT WHEN PROCESSING NODE 5 INSTANCE 
             REINBAR-1 D.O.F. 1
  Typically a zero pivot is associated with an overconstraint in the model. 
 However, Abaqus was not able to identify any chains of constraints that might 
 lead to an overconstraint at this node. This suggests that the model might be 
 in fact insufficiently constrained in this particular degree of freedom. 
 Please check the constraints used in this model. 


 ***WARNING: SOLVER PROBLEM.  ZERO PIVOT WHEN PROCESSING NODE 10 INSTANCE 
             REINBAR-1 D.O.F. 1
  Typically a zero pivot is associated with an overconstraint in the model. 
 However, Abaqus was not able to identify any chains of constraints that might 
 lead to an overconstraint at this node. This suggests that the model might be 
 in fact insufficiently constrained in this particular degree of freedom. 
 Please check the constraints used in this model. 


 ***WARNING: Solver problem. Zero pivot when processing D.O.F. 1 of 5 nodes. 
             The nodes have been identified in node set 
             WarnNodeSolvProbZeroPiv_1_1_50_3_1.

 ***WARNING: THE STRAIN INCREMENT HAS EXCEEDED FIFTY TIMES THE STRAIN TO CAUSE 
             FIRST YIELD AT 4 POINTS

 ***WARNING: THE STRAIN INCREMENT IS SO LARGE THAT THE PROGRAM WILL NOT ATTEMPT 
             THE PLASTICITY CALCULATION AT 4 POINTS
 

 ***NOTE: MATERIAL CALCULATIONS FAILED TO CONVERGE OR WERE NOT ATTEMPTED AT ONE 
          OR MORE POINTS. CONVERGENCE IS JUDGED UNLIKELY.


  INCREMENT    50 STARTS. ATTEMPT NUMBER  2, TIME INCREMENT  2.933E-05
 
	SYMMETRIC DIRECT SPARSE SOLVER RUNNING ON
 	1 HOST:        1 MPI RANK  x 1 THREAD
 	NUMBER OF EQUATIONS:     23
 	NUMBER OF RHS:           1
 	NUMBER OF FLOPS:         4.640e+02

     CHECK POINT   START OF SOLVER    

     CHECK POINT  END OF SOLVER       

       ELAPSED USER TIME (SEC)      =   0.0000    
       ELAPSED SYSTEM TIME (SEC)    =   0.0000    
       ELAPSED TOTAL CPU TIME (SEC) =   0.0000    
       ELAPSED WALLCLOCK TIME (SEC) =          0

               CONVERGENCE CHECKS FOR EQUILIBRIUM ITERATION     1


 AVERAGE FORCE                      2.714E+04   TIME AVG. FORCE       1.545E+04
 LARGEST RESIDUAL FORCE              2.48       AT NODE         21   DOF  1
   INSTANCE: REINBAR-1                                                                       
 LARGEST INCREMENT OF DISP.         4.149E-03   AT NODE         21   DOF  1
   INSTANCE: REINBAR-1                                                                       
 LARGEST CORRECTION TO DISP.        4.145E-03   AT NODE         21   DOF  1
   INSTANCE: REINBAR-1                                                                       
          DISP.    CORRECTION TOO LARGE COMPARED TO DISP.    INCREMENT
 
	SYMMETRIC DIRECT SPARSE SOLVER RUNNING ON
 	1 HOST:        1 MPI RANK  x 1 THREAD
 	NUMBER OF EQUATIONS:     23
 	NUMBER OF RHS:           1
 	NUMBER OF FLOPS:         4.640e+02

     CHECK POINT   START OF SOLVER    

     CHECK POINT  END OF SOLVER       

       ELAPSED USER TIME (SEC)      =   0.0000    
       ELAPSED SYSTEM TIME (SEC)    =   0.0000    
       ELAPSED TOTAL CPU TIME (SEC) =   0.0000    
       ELAPSED WALLCLOCK TIME (SEC) =          0
 

 ***WARNING: SOLVER PROBLEM. NUMERICAL SINGULARITY WHEN PROCESSING NODE 
             REINBAR-1.21 D.O.F. 1. THIS NODE HAS NO STIFFNESS IN THE SPECIFIED 
             DIRECTION AND IS NOT COUPLED WITH THE REST OF THE MODEL.

 ***WARNING: SOLVER PROBLEM.  ZERO PIVOT WHEN PROCESSING NODE 17 INSTANCE 
             REINBAR-1 D.O.F. 1
  Typically a zero pivot is associated with an overconstraint in the model. 
 However, Abaqus was not able to identify any chains of constraints that might 
 lead to an overconstraint at this node. This suggests that the model might be 
 in fact insufficiently constrained in this particular degree of freedom. 
 Please check the constraints used in this model. 


 ***WARNING: Solver problem. Zero pivot when processing D.O.F. 1 of 1 nodes. 
             The nodes have been identified in node set 
             WarnNodeSolvProbZeroPiv_1_1_50_2_2.

               CONVERGENCE CHECKS FOR EQUILIBRIUM ITERATION     2


 AVERAGE FORCE                      2.577E+04   TIME AVG. FORCE       1.543E+04
 LARGEST RESIDUAL FORCE            -4.958E+04   AT NODE          5   DOF  1
   INSTANCE: REINBAR-1                                                                       
 LARGEST INCREMENT OF DISP.        -7.398E-02   AT NODE          4   DOF  1
   INSTANCE: REINBAR-1                                                                       
 LARGEST CORRECTION TO DISP.       -7.460E-02   AT NODE          4   DOF  1
   INSTANCE: REINBAR-1                                                                       
          FORCE     EQUILIBRIUM NOT ACHIEVED WITHIN TOLERANCE.
 
	SYMMETRIC DIRECT SPARSE SOLVER RUNNING ON
 	1 HOST:        1 MPI RANK  x 1 THREAD
 	NUMBER OF EQUATIONS:     23
 	NUMBER OF RHS:           1
 	NUMBER OF FLOPS:         4.640e+02

     CHECK POINT   START OF SOLVER    

     CHECK POINT  END OF SOLVER       

       ELAPSED USER TIME (SEC)      =   0.0000    
       ELAPSED SYSTEM TIME (SEC)    =   0.0000    
       ELAPSED TOTAL CPU TIME (SEC) =   0.0000    
       ELAPSED WALLCLOCK TIME (SEC) =          0
 

 ***WARNING: SOLVER PROBLEM. NUMERICAL SINGULARITY WHEN PROCESSING NODE 
             REINBAR-1.17 D.O.F. 1 RATIO = 8.63555E+15.
 

 ***WARNING: SOLVER PROBLEM. NUMERICAL SINGULARITY WHEN PROCESSING NODE 
             REINBAR-1.5 D.O.F. 1 RATIO = 4.31777E+15.
 

 ***WARNING: SOLVER PROBLEM. NUMERICAL SINGULARITY WHEN PROCESSING NODE 
             REINBAR-1.21 D.O.F. 1. THIS NODE HAS NO STIFFNESS IN THE SPECIFIED 
             DIRECTION AND IS NOT COUPLED WITH THE REST OF THE MODEL.

               CONVERGENCE CHECKS FOR EQUILIBRIUM ITERATION     3


 AVERAGE FORCE                      2.714E+04   TIME AVG. FORCE       1.545E+04
 LARGEST RESIDUAL FORCE             5.429E+04   AT NODE          5   DOF  1
   INSTANCE: REINBAR-1                                                                       
 LARGEST INCREMENT OF DISP.         3.457E-02   AT NODE         16   DOF  1
   INSTANCE: REINBAR-1                                                                       
 LARGEST CORRECTION TO DISP.        7.398E-02   AT NODE          4   DOF  1
   INSTANCE: REINBAR-1                                                                       
          FORCE     EQUILIBRIUM NOT ACHIEVED WITHIN TOLERANCE.
 
	SYMMETRIC DIRECT SPARSE SOLVER RUNNING ON
 	1 HOST:        1 MPI RANK  x 1 THREAD
 	NUMBER OF EQUATIONS:     23
 	NUMBER OF RHS:           1
 	NUMBER OF FLOPS:         4.640e+02

     CHECK POINT   START OF SOLVER    

     CHECK POINT  END OF SOLVER       

       ELAPSED USER TIME (SEC)      =   0.0000    
       ELAPSED SYSTEM TIME (SEC)    =   0.0000    
       ELAPSED TOTAL CPU TIME (SEC) =   0.0000    
       ELAPSED WALLCLOCK TIME (SEC) =          0
 

 ***WARNING: SOLVER PROBLEM. NUMERICAL SINGULARITY WHEN PROCESSING NODE 
             REINBAR-1.17 D.O.F. 1 RATIO = 8.63555E+15.
 

 ***WARNING: SOLVER PROBLEM. NUMERICAL SINGULARITY WHEN PROCESSING NODE 
             REINBAR-1.5 D.O.F. 1 RATIO = 2.87852E+15.
 

 ***WARNING: SOLVER PROBLEM. NUMERICAL SINGULARITY WHEN PROCESSING NODE 
             REINBAR-1.21 D.O.F. 1. THIS NODE HAS NO STIFFNESS IN THE SPECIFIED 
             DIRECTION AND IS NOT COUPLED WITH THE REST OF THE MODEL.

 ***WARNING: THE STRAIN INCREMENT HAS EXCEEDED FIFTY TIMES THE STRAIN TO CAUSE 
             FIRST YIELD AT 4 POINTS

 ***WARNING: THE STRAIN INCREMENT IS SO LARGE THAT THE PROGRAM WILL NOT ATTEMPT 
             THE PLASTICITY CALCULATION AT 4 POINTS
 

 ***NOTE: MATERIAL CALCULATIONS FAILED TO CONVERGE OR WERE NOT ATTEMPTED AT ONE 
          OR MORE POINTS. CONVERGENCE IS JUDGED UNLIKELY.


  INCREMENT    50 STARTS. ATTEMPT NUMBER  3, TIME INCREMENT  2.000E-05
 
	SYMMETRIC DIRECT SPARSE SOLVER RUNNING ON
 	1 HOST:        1 MPI RANK  x 1 THREAD
 	NUMBER OF EQUATIONS:     23
 	NUMBER OF RHS:           1
 	NUMBER OF FLOPS:         4.640e+02

     CHECK POINT   START OF SOLVER    

     CHECK POINT  END OF SOLVER       

       ELAPSED USER TIME (SEC)      =   0.0000    
       ELAPSED SYSTEM TIME (SEC)    =   0.0000    
       ELAPSED TOTAL CPU TIME (SEC) =   0.0000    
       ELAPSED WALLCLOCK TIME (SEC) =          0

               CONVERGENCE CHECKS FOR EQUILIBRIUM ITERATION     1


 AVERAGE FORCE                      2.714E+04   TIME AVG. FORCE       1.545E+04
 LARGEST RESIDUAL FORCE              2.34       AT NODE         21   DOF  1
   INSTANCE: REINBAR-1                                                                       
 LARGEST INCREMENT OF DISP.         3.949E-03   AT NODE         21   DOF  1
   INSTANCE: REINBAR-1                                                                       
 LARGEST CORRECTION TO DISP.        3.946E-03   AT NODE         21   DOF  1
   INSTANCE: REINBAR-1                                                                       
          DISP.    CORRECTION TOO LARGE COMPARED TO DISP.    INCREMENT
 
	SYMMETRIC DIRECT SPARSE SOLVER RUNNING ON
 	1 HOST:        1 MPI RANK  x 1 THREAD
 	NUMBER OF EQUATIONS:     23
 	NUMBER OF RHS:           1
 	NUMBER OF FLOPS:         4.640e+02

     CHECK POINT   START OF SOLVER    

     CHECK POINT  END OF SOLVER       

       ELAPSED USER TIME (SEC)      =   0.0000    
       ELAPSED SYSTEM TIME (SEC)    =   0.0000    
       ELAPSED TOTAL CPU TIME (SEC) =   0.0000    
       ELAPSED WALLCLOCK TIME (SEC) =          0

 ***WARNING: THE STRAIN INCREMENT HAS EXCEEDED FIFTY TIMES THE STRAIN TO CAUSE 
             FIRST YIELD AT 1 POINTS

 ***WARNING: THE STRAIN INCREMENT IS SO LARGE THAT THE PROGRAM WILL NOT ATTEMPT 
             THE PLASTICITY CALCULATION AT 1 POINTS
 

 ***NOTE: MATERIAL CALCULATIONS FAILED TO CONVERGE OR WERE NOT ATTEMPTED AT ONE 
          OR MORE POINTS. CONVERGENCE IS JUDGED UNLIKELY.
 

 ***ERROR: TIME INCREMENT REQUIRED IS LESS THAN THE MINIMUM SPECIFIED

 ***ERROR: THE ANALYSIS HAS BEEN TERMINATED DUE TO PREVIOUS ERRORS. ALL OUTPUT 
           REQUESTS HAVE BEEN WRITTEN FOR THE LAST CONVERGED INCREMENT.



     ANALYSIS SUMMARY:
     TOTAL OF         50  INCREMENTS
                      10  CUTBACKS IN AUTOMATIC INCREMENTATION
                      79  ITERATIONS INCLUDING CONTACT ITERATIONS IF PRESENT
                      79  PASSES THROUGH THE EQUATION SOLVER OF WHICH 
                      33  INVOLVE MATRIX DECOMPOSITION, INCLUDING
                       0  DECOMPOSITION(S) OF THE MASS MATRIX
                       1  REORDERING OF EQUATIONS TO MINIMIZE WAVEFRONT
                       0  ADDITIONAL RESIDUAL EVALUATIONS FOR LINE SEARCHES
                       0  ADDITIONAL OPERATOR EVALUATIONS FOR LINE SEARCHES
                       3  WARNING MESSAGES DURING USER INPUT PROCESSING
                     129  WARNING MESSAGES DURING ANALYSIS
                      98  ANALYSIS WARNINGS ARE NUMERICAL PROBLEM MESSAGES
                       0  ANALYSIS WARNINGS ARE NEGATIVE EIGENVALUE MESSAGES
                       2  ERROR MESSAGES



     JOB TIME SUMMARY
       USER TIME (SEC)      =  0.60000    
       SYSTEM TIME (SEC)    =  0.40000    
       TOTAL CPU TIME (SEC) =   1.0000    
       WALLCLOCK TIME (SEC) =          1
