 Abaqus/Standard 2022                  DATE 28-3ÔÂ-2025 TIME 05:27:02
 SUMMARY OF JOB INFORMATION:
 STEP  INC ATT SEVERE EQUIL TOTAL  TOTAL      STEP       INC OF       DOF    IF
               DISCON ITERS ITERS  TIME/    TIME/LPF    TIME/LPF    MONITOR RIKS
               ITERS               FREQ
   1     1   1     0     1     1  0.0100     0.0100     0.01000   
   1     2   1     0     1     1  0.0200     0.0200     0.01000   
   1     3   1     0     1     1  0.0350     0.0350     0.01500   
   1     4   1     0     1     1  0.0500     0.0500     0.01500   
   1     5   1     0     1     1  0.0725     0.0725     0.02250   
   1     6   1     0     1     1  0.100      0.100      0.02750   
   1     7   1     0     1     1  0.150      0.150      0.05000   
   1     8   1     0     1     1  0.200      0.200      0.05000   
   1     9   1     0     1     1  0.250      0.250      0.05000   
   1    10   1     0     1     1  0.300      0.300      0.05000   
   1    11   1     0     1     1  0.350      0.350      0.05000   
   1    12   1     0     1     1  0.400      0.400      0.05000   
   1    13   1     0     1     1  0.450      0.450      0.05000   
   1    14   1     0     1     1  0.500      0.500      0.05000   
   1    15   1     0     1     1  0.550      0.550      0.05000   
   1    16   1     0     1     1  0.600      0.600      0.05000   
   1    17   1     0     1     1  0.650      0.650      0.05000   
   1    18   1     0     1     1  0.700      0.700      0.05000   
   1    19   1     0     1     1  0.750      0.750      0.05000   
   1    20   1     0     1     1  0.800      0.800      0.05000   
   1    21   1     0     1     1  0.850      0.850      0.05000   
   1    22   1     0     1     1  0.900      0.900      0.05000   
   1    23   1     0     1     1  0.950      0.950      0.05000   
   1    24   1     0     1     1  1.00       1.00       0.05000   
   1    25   1     0     1     1  1.05       1.05       0.05000   
   1    26   1     0     1     1  1.10       1.10       0.05000   
   1    27   1     0     1     1  1.15       1.15       0.05000   
   1    28   1     0     1     1  1.20       1.20       0.05000   
   1    29   1     0     1     1  1.25       1.25       0.05000   
   1    30   1     0     1     1  1.30       1.30       0.05000   
   1    31   1     0     2     2  1.35       1.35       0.05000   
   1    32   1     0     1     1  1.40       1.40       0.05000   
   1    33   1     0     1     1  1.45       1.45       0.05000   
   1    34   1     0     1     1  1.50       1.50       0.05000   
   1    35   1     0     1     1  1.55       1.55       0.05000   
   1    36   1     0     1     1  1.60       1.60       0.05000   
   1    37   1     0     1     1  1.65       1.65       0.05000   
   1    38   1     0     1     1  1.70       1.70       0.05000   
   1    39   1     0     1     1  1.75       1.75       0.05000   
   1    40   1     0     1     1  1.80       1.80       0.05000   
   1    41   1U    0     5     5  1.80       1.80       0.05000   
   1    41   2U    0     1     1  1.80       1.80       0.01250   
   1    41   3     0     2     2  1.80       1.80       0.003125  
   1    42   1     0     1     1  1.81       1.81       0.004688  
   1    43   1U    0     2     2  1.81       1.81       0.007031  
   1    43   2U    0     3     3  1.81       1.81       0.001758  
   1    43   3     0     2     2  1.81       1.81       0.0004395 
   1    44   1     0     1     1  1.81       1.81       0.0006592 
   1    45   1U    0     4     4  1.81       1.81       0.0009888 
   1    45   2     0     1     1  1.81       1.81       0.0002472 
   1    46   1     0     1     1  1.81       1.81       0.0003708 
   1    47   1U    0     2     2  1.81       1.81       0.0005562 
   1    47   2U    0     1     1  1.81       1.81       0.0001390 
   1    47   3     0     1     1  1.81       1.81       3.476e-05 
   1    48   1     0     1     1  1.81       1.81       5.214e-05 
   1    49   1     0     1     1  1.81       1.81       7.821e-05 
   1    50   1U    0     3     3  1.81       1.81       0.0001173 
   1    50   2U    0     4     4  1.81       1.81       2.933e-05 
   1    50   3U    0     2     2  1.81       1.81       2.000e-05 
                          
 THE ANALYSIS HAS NOT BEEN COMPLETED
